version 2
run Default-0-20191008-06:48:07-15652
attr configname Default
attr datetime 20191008-06:48:07
attr experiment Default
attr inifile omnetpp2.ini
attr iterationvars ""
attr iterationvarsf ""
attr measurement ""
attr network globcomm.simulation.Thesis
attr processid 15652
attr repetition 0
attr replication #0
attr resultdir results
attr runnumber 0
attr seedset 0
param **.debug false
param **.coreDebug false
param *.playgroundSizeX 2500m
param *.playgroundSizeY 2500m
param *.playgroundSizeZ 50m
param *.annotations.draw true
param *.obstacles.debug false
param *.obstacles.obstacles "xmldoc(\"config.xml\", \"//AnalogueModel[@type='SimpleObstacleShadowing']/obstacles\")"
param *.manager.updateInterval 1s
param *.manager.host "\"localhost\""
param *.manager.port 9999
param *.manager.autoShutdown true
param *.manager.launchConfig "xmldoc(\"erlangen.launchd.xml\")"
param *.rsu[0].mobility.x 2000
param *.rsu[0].mobility.y 2000
param *.rsu[0].mobility.z 3
param *.rsu[*].applType "\"globcomm.src.RSU11p\""
param *.rsu[*].appl.headerLength "80 bit"
param *.rsu[*].appl.sendBeacons false
param *.rsu[*].appl.dataOnSch false
param *.rsu[*].appl.beaconInterval 1s
param *.rsu[*].appl.beaconUserPriority 7
param *.rsu[*].appl.dataUserPriority 5
param *.connectionManager.sendDirect true
param *.connectionManager.maxInterfDist 500m
param *.connectionManager.drawMaxIntfDist true
param *.**.nic.mac1609_4.useServiceChannel false
param *.**.nic.mac1609_4.txPower 20mW
param *.**.nic.mac1609_4.bitrate 6Mbps
param *.**.nic.phy80211p.sensitivity -89dBm
param *.**.nic.phy80211p.useThermalNoise true
param *.**.nic.phy80211p.thermalNoise -110dBm
param *.**.nic.phy80211p.decider "xmldoc(\"config.xml\")"
param *.**.nic.phy80211p.analogueModels "xmldoc(\"config.xml\")"
param *.**.nic.phy80211p.usePropagationDelay true
param *.**.nic.phy80211p.antenna "xmldoc(\"antenna.xml\", \"/root/Antenna[@id='monopole']\")"
param *.node[*].applType "\"globcomm.src.MyThesisApp\""
param *.node[*].appl.headerLength "80 bit"
param *.node[*].appl.sendBeacons false
param *.node[*].appl.dataOnSch false
param *.node[*].appl.beaconInterval 1s
param *.node[*].veinsmobilityType.debug true
param *.node[*].veinsmobility.x 0
param *.node[*].veinsmobility.y 0
param *.node[*].veinsmobility.z 1.895
param *.node[*0].veinsmobility.accidentCount 1
param *.node[*0].veinsmobility.accidentStart 75s
param *.node[*0].veinsmobility.accidentDuration 50s

vector 0 Thesis.node[0].veinsmobility posx ETV
vector 1 Thesis.node[0].veinsmobility posy ETV
vector 2 Thesis.node[0].veinsmobility speed ETV
vector 3 Thesis.node[0].veinsmobility acceleration ETV
vector 4 Thesis.node[0].veinsmobility co2emission ETV
vector 5 Thesis.node[1].veinsmobility posx ETV
vector 6 Thesis.node[1].veinsmobility posy ETV
vector 7 Thesis.node[1].veinsmobility speed ETV
vector 8 Thesis.node[1].veinsmobility acceleration ETV
vector 9 Thesis.node[1].veinsmobility co2emission ETV
vector 10 Thesis.node[2].veinsmobility posx ETV
vector 11 Thesis.node[2].veinsmobility posy ETV
vector 12 Thesis.node[2].veinsmobility speed ETV
vector 13 Thesis.node[2].veinsmobility acceleration ETV
vector 14 Thesis.node[2].veinsmobility co2emission ETV
vector 15 Thesis.node[3].veinsmobility posx ETV
vector 16 Thesis.node[3].veinsmobility posy ETV
vector 17 Thesis.node[3].veinsmobility speed ETV
vector 18 Thesis.node[3].veinsmobility acceleration ETV
vector 19 Thesis.node[3].veinsmobility co2emission ETV
vector 20 Thesis.node[4].veinsmobility posx ETV
vector 21 Thesis.node[4].veinsmobility posy ETV
vector 22 Thesis.node[4].veinsmobility speed ETV
vector 23 Thesis.node[4].veinsmobility acceleration ETV
vector 24 Thesis.node[4].veinsmobility co2emission ETV
vector 25 Thesis.node[5].veinsmobility posx ETV
vector 26 Thesis.node[5].veinsmobility posy ETV
vector 27 Thesis.node[5].veinsmobility speed ETV
vector 28 Thesis.node[5].veinsmobility acceleration ETV
vector 29 Thesis.node[5].veinsmobility co2emission ETV
vector 30 Thesis.node[6].veinsmobility posx ETV
vector 31 Thesis.node[6].veinsmobility posy ETV
vector 32 Thesis.node[6].veinsmobility speed ETV
vector 33 Thesis.node[6].veinsmobility acceleration ETV
vector 34 Thesis.node[6].veinsmobility co2emission ETV
vector 35 Thesis.node[7].veinsmobility posx ETV
vector 36 Thesis.node[7].veinsmobility posy ETV
vector 37 Thesis.node[7].veinsmobility speed ETV
vector 38 Thesis.node[7].veinsmobility acceleration ETV
vector 39 Thesis.node[7].veinsmobility co2emission ETV
vector 40 Thesis.node[8].veinsmobility posx ETV
vector 41 Thesis.node[8].veinsmobility posy ETV
vector 42 Thesis.node[8].veinsmobility speed ETV
vector 43 Thesis.node[8].veinsmobility acceleration ETV
vector 44 Thesis.node[8].veinsmobility co2emission ETV
vector 45 Thesis.node[9].veinsmobility posx ETV
vector 46 Thesis.node[9].veinsmobility posy ETV
vector 47 Thesis.node[9].veinsmobility speed ETV
vector 48 Thesis.node[9].veinsmobility acceleration ETV
vector 49 Thesis.node[9].veinsmobility co2emission ETV
vector 50 Thesis.node[10].veinsmobility posx ETV
vector 51 Thesis.node[10].veinsmobility posy ETV
vector 52 Thesis.node[10].veinsmobility speed ETV
vector 53 Thesis.node[10].veinsmobility acceleration ETV
vector 54 Thesis.node[10].veinsmobility co2emission ETV
vector 55 Thesis.node[11].veinsmobility posx ETV
vector 56 Thesis.node[11].veinsmobility posy ETV
vector 57 Thesis.node[11].veinsmobility speed ETV
vector 58 Thesis.node[11].veinsmobility acceleration ETV
vector 59 Thesis.node[11].veinsmobility co2emission ETV
vector 60 Thesis.node[12].veinsmobility posx ETV
vector 61 Thesis.node[12].veinsmobility posy ETV
vector 62 Thesis.node[12].veinsmobility speed ETV
vector 63 Thesis.node[12].veinsmobility acceleration ETV
vector 64 Thesis.node[12].veinsmobility co2emission ETV
vector 65 Thesis.node[13].veinsmobility posx ETV
vector 66 Thesis.node[13].veinsmobility posy ETV
vector 67 Thesis.node[13].veinsmobility speed ETV
vector 68 Thesis.node[13].veinsmobility acceleration ETV
vector 69 Thesis.node[13].veinsmobility co2emission ETV
vector 70 Thesis.node[14].veinsmobility posx ETV
vector 71 Thesis.node[14].veinsmobility posy ETV
vector 72 Thesis.node[14].veinsmobility speed ETV
vector 73 Thesis.node[14].veinsmobility acceleration ETV
vector 74 Thesis.node[14].veinsmobility co2emission ETV
vector 75 Thesis.node[15].veinsmobility posx ETV
vector 76 Thesis.node[15].veinsmobility posy ETV
vector 77 Thesis.node[15].veinsmobility speed ETV
vector 78 Thesis.node[15].veinsmobility acceleration ETV
vector 79 Thesis.node[15].veinsmobility co2emission ETV
vector 80 Thesis.node[16].veinsmobility posx ETV
vector 81 Thesis.node[16].veinsmobility posy ETV
vector 82 Thesis.node[16].veinsmobility speed ETV
vector 83 Thesis.node[16].veinsmobility acceleration ETV
vector 84 Thesis.node[16].veinsmobility co2emission ETV
vector 85 Thesis.node[17].veinsmobility posx ETV
vector 86 Thesis.node[17].veinsmobility posy ETV
vector 87 Thesis.node[17].veinsmobility speed ETV
vector 88 Thesis.node[17].veinsmobility acceleration ETV
vector 89 Thesis.node[17].veinsmobility co2emission ETV
vector 90 Thesis.node[18].veinsmobility posx ETV
vector 91 Thesis.node[18].veinsmobility posy ETV
vector 92 Thesis.node[18].veinsmobility speed ETV
vector 93 Thesis.node[18].veinsmobility acceleration ETV
vector 94 Thesis.node[18].veinsmobility co2emission ETV
vector 95 Thesis.node[19].veinsmobility posx ETV
vector 96 Thesis.node[19].veinsmobility posy ETV
vector 97 Thesis.node[19].veinsmobility speed ETV
vector 98 Thesis.node[19].veinsmobility acceleration ETV
vector 99 Thesis.node[19].veinsmobility co2emission ETV
vector 100 Thesis.node[20].veinsmobility posx ETV
vector 101 Thesis.node[20].veinsmobility posy ETV
vector 102 Thesis.node[20].veinsmobility speed ETV
vector 103 Thesis.node[20].veinsmobility acceleration ETV
vector 104 Thesis.node[20].veinsmobility co2emission ETV
vector 105 Thesis.node[21].veinsmobility posx ETV
vector 106 Thesis.node[21].veinsmobility posy ETV
vector 107 Thesis.node[21].veinsmobility speed ETV
vector 108 Thesis.node[21].veinsmobility acceleration ETV
vector 109 Thesis.node[21].veinsmobility co2emission ETV
vector 110 Thesis.node[22].veinsmobility posx ETV
vector 111 Thesis.node[22].veinsmobility posy ETV
vector 112 Thesis.node[22].veinsmobility speed ETV
vector 113 Thesis.node[22].veinsmobility acceleration ETV
vector 114 Thesis.node[22].veinsmobility co2emission ETV
vector 115 Thesis.node[23].veinsmobility posx ETV
vector 116 Thesis.node[23].veinsmobility posy ETV
vector 117 Thesis.node[23].veinsmobility speed ETV
vector 118 Thesis.node[23].veinsmobility acceleration ETV
vector 119 Thesis.node[23].veinsmobility co2emission ETV
vector 120 Thesis.node[24].veinsmobility posx ETV
vector 121 Thesis.node[24].veinsmobility posy ETV
vector 122 Thesis.node[24].veinsmobility speed ETV
vector 123 Thesis.node[24].veinsmobility acceleration ETV
vector 124 Thesis.node[24].veinsmobility co2emission ETV
vector 125 Thesis.node[25].veinsmobility posx ETV
vector 126 Thesis.node[25].veinsmobility posy ETV
vector 127 Thesis.node[25].veinsmobility speed ETV
vector 128 Thesis.node[25].veinsmobility acceleration ETV
vector 129 Thesis.node[25].veinsmobility co2emission ETV
vector 130 Thesis.node[26].veinsmobility posx ETV
vector 131 Thesis.node[26].veinsmobility posy ETV
vector 132 Thesis.node[26].veinsmobility speed ETV
vector 133 Thesis.node[26].veinsmobility acceleration ETV
vector 134 Thesis.node[26].veinsmobility co2emission ETV
vector 135 Thesis.node[27].veinsmobility posx ETV
vector 136 Thesis.node[27].veinsmobility posy ETV
vector 137 Thesis.node[27].veinsmobility speed ETV
vector 138 Thesis.node[27].veinsmobility acceleration ETV
vector 139 Thesis.node[27].veinsmobility co2emission ETV
vector 140 Thesis.node[28].veinsmobility posx ETV
vector 141 Thesis.node[28].veinsmobility posy ETV
vector 142 Thesis.node[28].veinsmobility speed ETV
vector 143 Thesis.node[28].veinsmobility acceleration ETV
vector 144 Thesis.node[28].veinsmobility co2emission ETV
vector 145 Thesis.node[29].veinsmobility posx ETV
vector 146 Thesis.node[29].veinsmobility posy ETV
0	2	1	2414.9014220152
0	3	2	2414.9014220152
0	4	3	2412.0282535021
0	5	4	2407.434272861
0	6	5	2402.6086066293
0	7	6	2396.4772731521
0	8	7	2388.9936340754
0	9	8	2380.1477414317
0	10	9	2370.4544348472
0	11	10	2360.735065655
0	12	11	2351.0178592684
0	13	12	2341.5298487653
0	14	13	2334.7235384902
0	15	14	2336.8243788907
0	16	15	2347.473535693
0	17	16	2357.7419379568
0	18	17	2370.3022435491
0	19	18	2383.9995112187
0	20	19	2397.5196581341
0	21	20	2408.4006939746
0	22	21	2416.1646603449
0	23	22	2421.2380997778
0	24	23	2425.4024470274
0	25	24	2430.5642199855
0	26	25	2431.857510546
0	27	26	2433.3910067528
0	28	27	2435.2086441015
0	29	28	2437.2654259532
0	30	29	2438.6622200004
0	31	30	2439.5314866065
0	32	31	2440.5417792661
0	33	32	2441.5518293041
0	34	33	2442.5624475764
0	35	34	2443.5735475319
0	36	35	2444.5849311245
0	37	36	2445.5950808151
0	38	37	2446.6046263459
0	39	38	2447.6140945138
0	40	39	2448.6233097685
0	41	40	2449.6332776411
0	42	41	2450.6439768443
0	43	42	2449.5656488632
0	44	43	2448.4523300367
0	45	44	2447.3397444888
0	46	45	2446.2263210806
0	47	46	2445.1152206709
0	48	47	2444.0012420758
0	49	48	2442.8904823567
0	50	49	2441.777872229
0	51	50	2440.6656682086
0	52	51	2439.6989606298
0	53	52	2438.7586376385
0	54	53	2437.8656483651
0	55	54	2432.7589399592
0	56	55	2422.3179143567
0	57	56	2409.1878704632
0	58	57	2395.2685581594
0	59	58	2381.3499362882
0	60	59	2367.4345339072
0	61	60	2353.4990511541
0	62	61	2339.5799515581
0	63	62	2325.6551645531
0	64	63	2311.7279255744
0	65	64	2297.8279693802
0	66	65	2283.9024435012
0	67	66	2269.9700077686
0	68	67	2256.0654755381
0	69	68	2242.2022168655
0	70	69	2228.4219174191
0	71	70	2214.6856643925
0	72	71	2201.4943822231
0	73	72	2188.3033135722
0	74	73	2175.3852950842
0	75	74	2163.8113479719
0	76	75	2154.8285947237
0	78	76	2148.4727012644
0	79	77	2145.3375848804
0	80	78	2145.153248784
0	81	79	2145.153248784
0	82	80	2145.153248784
0	83	81	2145.153248784
0	84	82	2145.153248784
0	85	83	2145.153248784
0	86	84	2145.153248784
0	87	85	2145.153248784
0	88	86	2145.153248784
0	201	87	2145.153248784
0	202	88	2145.153248784
1	2	1	1578.4416120471
1	3	2	1578.4416120471
1	4	3	1579.4966245294
1	5	4	1581.2776015159
1	6	5	1586.1653365986
1	7	6	1592.3755327258
1	8	7	1599.9554281235
1	9	8	1608.9150987137
1	10	9	1618.7330828821
1	11	10	1628.5774648814
1	12	11	1638.4196562562
1	13	12	1648.4360301802
1	14	13	1660.0725704357
1	15	14	1672.8800310632
1	16	15	1681.6922949329
1	17	16	1690.9525972893
1	18	17	1695.3639500989
1	19	18	1697.2011958091
1	20	19	1698.541036698
1	21	20	1699.5699112993
1	22	21	1700.3040461661
1	23	22	1700.7837737445
1	24	23	1701.0583376894
1	25	24	1703.8447521525
1	26	25	1712.0460333815
1	27	26	1722.1372181661
1	28	27	1734.0981961433
1	29	28	1747.6328665474
1	30	29	1761.4906543829
1	31	30	1775.4009959176
1	32	31	1789.2945122393
1	33	32	1803.1846920336
1	34	33	1817.0826861728
1	35	34	1830.9873044016
1	36	35	1844.8958232021
1	37	36	1858.787373418
1	38	37	1872.6706152447
1	39	38	1886.5527931787
1	40	39	1900.4314930569
1	41	40	1914.3205429167
1	42	41	1928.2196500115
1	43	42	1942.0989239831
1	44	43	1955.9945893753
1	45	44	1969.8811024986
1	46	45	1983.7780732056
1	47	46	1997.6460498739
1	48	47	2011.5499500362
1	49	48	2025.4136744449
1	50	49	2039.3004943542
1	51	50	2053.1822455181
1	52	51	2067.0851366306
1	53	52	2080.9781504953
1	54	53	2094.8620636659
1	55	54	2107.5958017986
1	56	55	2116.50443774
1	57	56	2120.966550488
1	58	57	2120.4964137897
1	59	58	2120.0263004107
1	60	59	2119.5562957739
1	61	60	2119.0856129043
1	62	61	2118.6154833902
1	63	62	2118.1451617796
1	64	63	2117.6747573502
1	65	64	2117.2052744217
1	66	65	2116.7349278545
1	67	66	2116.2643479006
1	68	67	2115.7947104117
1	69	68	2114.7714226404
1	70	69	2112.8172696698
1	71	70	2110.6040639561
1	72	71	2106.1301952414
1	73	72	2101.6563989418
1	74	73	2096.5653671324
1	75	74	2089.751967214
1	76	75	2084.4639622094
1	78	76	2080.7223480865
1	79	77	2078.8767545735
1	80	78	2078.7682388239
1	81	79	2078.7682388239
1	82	80	2078.7682388239
1	83	81	2078.7682388239
1	84	82	2078.7682388239
1	85	83	2078.7682388239
1	86	84	2078.7682388239
1	87	85	2078.7682388239
1	88	86	2078.7682388239
1	201	87	2078.7682388239
1	202	88	2078.7682388239
2	3	2	3.9572089270348
2	4	3	5.7922925953529
2	5	4	7.6194012491274
2	6	5	9.5894080545995
2	7	6	11.533503466331
2	8	7	13.45866683106
2	9	8	13.763021058196
2	10	9	13.877787734221
2	11	10	13.81303454956
2	12	11	13.887504883918
2	13	12	13.876970504746
2	14	13	13.864000451695
2	15	14	13.856933657241
2	16	15	13.854439535674
2	17	16	13.767743846299
2	18	17	13.864735511465
2	19	18	12.701945721803
2	20	19	9.4648862359575
2	21	20	6.5045373958602
2	22	21	3.9708339981135
2	23	22	5.203759204257
2	24	23	7.298666550371
2	25	24	9.1998458950297
2	26	25	11.159746339736
2	27	26	12.858882885278
2	28	27	13.95041837032
2	29	28	13.898407651924
2	30	29	13.910887940275
2	31	30	13.911852276418
2	32	31	13.894752860635
2	33	32	13.874683156386
2	34	33	13.923188518677
2	35	34	13.918528157957
2	36	35	13.895035590874
2	37	36	13.922574126583
2	38	37	13.9419489246
2	39	38	13.948759087052
2	40	39	13.905708889831
2	41	40	13.901163716011
2	42	41	13.949750000604
2	43	42	13.943335208059
2	44	43	13.87635670668
2	45	44	13.984807270386
2	46	45	13.898623034931
2	47	46	13.910780882265
2	48	47	13.889157581951
2	49	48	13.899232032241
2	50	49	13.932512850815
2	51	50	13.914859050941
2	52	51	13.975468302649
2	53	52	13.872363908398
2	54	53	13.9137244428
2	55	54	13.924771909455
2	56	55	13.950123941202
2	57	56	13.915996466407
2	58	57	13.925941982139
2	59	58	13.881943564357
2	60	59	13.992219979041
2	61	60	13.998597038973
2	62	61	13.874225773131
2	63	62	13.871739098215
2	64	63	13.928694565166
2	65	64	13.975976315038
2	66	65	13.898751937284
2	67	66	13.871158400744
2	68	67	13.931142031602
2	69	68	13.871678100268
2	70	69	13.982209371617
2	71	70	13.925930872245
2	72	71	13.946668972634
2	73	72	13.921497817454
2	74	73	12.284853764238
2	75	74	9.0121437214081
2	76	75	6.1130176202615
2	78	76	1.6130176202615
2	79	77	0
2	80	78	0
2	81	79	0
2	82	80	0
2	83	81	0
2	84	82	0
2	85	83	0
2	86	84	0
2	87	85	0
2	88	86	0
2	201	87	0
2	202	88	0
3	4	3	1.8350836683181
3	5	4	1.8271086537745
3	6	5	1.9700068054721
3	7	6	1.9440954117314
3	8	7	1.9251633647294
3	9	8	0.3043542271355
3	10	9	0.11476667602547
3	11	10	-0.064753184660804
3	12	11	0.074470334358047
3	13	12	-0.010534379172604
3	14	13	-0.012970053050667
3	15	14	-0.0070667944545857
3	16	15	-0.0024941215664143
3	17	16	-0.086695689375047
3	18	17	0.096991665165405
3	19	18	-1.1627897896615
3	20	19	-3.2370594858455
3	21	20	-2.9603488400973
3	22	21	-2.5337033977468
3	23	22	1.2329252061435
3	24	23	2.094907346114
3	25	24	1.9011793446587
3	26	25	1.9599004447064
3	27	26	1.6991365455417
3	28	27	1.0915354850417
3	29	28	-0.052010718395469
3	30	29	0.01248028835049
3	31	30	0.00096433614380587
3	32	31	-0.017099415783305
3	33	32	-0.020069704249035
3	34	33	0.048505362290889
3	35	34	-0.0046603607200097
3	36	35	-0.023492567082867
3	37	36	0.027538535709027
3	38	37	0.01937479801709
3	39	38	0.0068101624515826
3	40	39	-0.043050197220873
3	41	40	-0.0045451738196416
3	42	41	0.048586284592748
3	43	42	-0.0064147925446747
3	44	43	-0.06697850137949
3	45	44	0.10845056370599
3	46	45	-0.086184235455002
3	47	46	0.012157847334166
3	48	47	-0.02162330031395
3	49	48	0.01007445028983
3	50	49	0.033280818574131
3	51	50	-0.017653799874243
3	52	51	0.060609251707794
3	53	52	-0.10310439425055
3	54	53	0.04136053440161
3	55	54	0.011047466655729
3	56	55	0.025352031746879
3	57	56	-0.034127474795095
3	58	57	0.0099455157318147
3	59	58	-0.043998417782131
3	60	59	0.11027641468448
3	61	60	0.0063770599314008
3	62	61	-0.12437126584118
3	63	62	-0.002486674915998
3	64	63	0.056955466950312
3	65	64	0.047281749872491
3	66	65	-0.077224377754611
3	67	66	-0.027593536539934
3	68	67	0.059983630857896
3	69	68	-0.05946393133374
3	70	69	0.11053127134917
3	71	70	-0.056278499371837
3	72	71	0.020738100388552
3	73	72	-0.02517115517985
3	74	73	-1.6366440532162
3	75	74	-3.2727100428296
3	76	75	-2.8991261011466
3	78	76	-4.5
3	79	77	-1.6130176202615
3	80	78	0
3	81	79	0
3	82	80	0
3	83	81	0
3	84	82	0
3	85	83	0
3	86	84	0
3	87	85	0
3	88	86	0
3	201	87	0
3	202	88	0
4	4	3	3.9690439751639
4	5	4	4.8734986088453
4	6	5	6.2068327255978
4	7	6	7.2118621755177
4	8	7	8.2287933875323
4	9	8	3.0242689444712
4	10	9	2.410214010884
4	11	10	1.8042481683123
4	12	11	2.2766031729043
4	13	12	1.9910577970912
4	14	13	1.9816353748441
4	15	14	2.0006543718409
4	16	15	2.0156733927738
4	17	16	1.7275773004983
4	18	17	2.3491339177603
4	19	18	0.973
4	20	19	0.973
4	21	20	0.973
4	22	21	0.973
4	23	22	2.9202656039732
4	24	23	5.1829022112917
4	25	24	5.8409555110412
4	26	25	7.0478875101329
4	27	26	7.1923395024802
4	28	27	5.7035699225295
4	29	28	1.8542576609033
4	30	29	2.071579633465
4	31	30	2.033070591514
4	32	31	1.9708367886165
4	33	32	1.958947003716
4	34	33	2.1937519865362
4	35	34	2.0148851452489
4	36	35	1.9494556216079
4	37	36	2.1233313202265
4	38	37	2.0980065652139
4	39	38	2.0564960049267
4	40	39	1.8849385975403
4	41	40	2.0135217775437
4	42	41	2.1970455854856
4	43	42	2.0114927076469
4	44	43	1.8022364453996
4	45	44	2.4028055099799
4	46	45	1.7398103572212
4	47	46	2.0704874226364
4	48	47	1.9551479348163
4	49	48	2.0622988460067
4	50	49	2.1436920788903
4	51	50	1.9709420801269
4	52	51	2.2404713242546
4	53	52	1.6811177558643
4	54	53	2.1687186093148
4	55	54	2.068228125812
4	56	55	2.1189750795911
4	57	56	1.9158044765909
4	58	57	2.0646522515523
4	59	58	1.8795950099662
4	60	59	2.40991582857
4	61	60	2.060217812421
4	62	61	1.6101508281289
4	63	62	2.0174438220444
4	64	63	2.2227433300183
4	65	64	2.1956409213675
4	66	65	1.7698327313004
4	67	66	1.9334542286895
4	68	67	2.2331933794582
4	69	68	1.8269584545957
4	70	69	2.4094828911751
4	71	70	1.8423934072781
4	72	71	2.1030929112895
4	73	72	1.9463691603324
4	74	73	0.973
4	75	74	0.973
4	76	75	0.973
4	78	76	0.973
4	79	77	0.973
4	80	78	0.973
4	81	79	0.973
4	82	80	0.973
4	83	81	0.973
4	84	82	0.973
4	85	83	0.973
4	86	84	0.973
4	87	85	0.973
4	88	86	0.973
4	201	87	0.973
4	202	88	0.973
5	5	4	2414.8859801291
5	6	5	2414.8859801291
5	7	6	2411.9954222892
5	8	7	2407.2506839979
5	9	8	2402.2569066116
5	10	9	2395.8698252906
5	11	10	2388.1231925822
5	12	11	2379.0778566878
5	13	12	2369.3658650925
5	14	13	2359.6406075037
5	15	14	2349.9377508366
5	16	15	2340.5696662485
5	17	16	2334.4685549028
5	18	17	2338.029717051
5	19	18	2348.6255299923
5	20	19	2358.9043307323
5	21	20	2371.8350753159
5	22	21	2385.3663703802
5	23	22	2396.8549781273
5	24	23	2406.0844248855
5	25	24	2414.3452692438
5	26	25	2420.0958222281
5	27	26	2423.9862948015
5	28	27	2429.4993003103
5	29	28	2431.427825698
5	30	29	2432.8362908805
5	31	30	2434.5436464486
5	32	31	2436.5335342661
5	33	32	2438.3299803259
5	34	33	2439.1886723154
5	35	34	2440.1890011905
5	36	35	2441.1999299027
5	37	36	2442.2109507151
5	38	37	2443.2206176987
5	39	38	2444.2293012826
5	40	39	2445.238706779
5	41	40	2446.2476373996
5	42	41	2447.2575439028
5	43	42	2448.2689044791
5	44	43	2449.2796033344
5	45	44	2450.2901292811
5	46	45	2449.9548820338
5	47	46	2448.8430623495
5	48	47	2447.7297087947
5	49	48	2446.6175303617
5	50	49	2445.50371616
5	51	50	2444.3919153415
5	52	51	2443.2783808481
5	53	52	2442.1664672778
5	54	53	2441.0525203367
5	55	54	2440.0270559463
5	56	55	2439.0859457215
5	57	56	2438.5427623577
5	58	57	2435.2747637217
5	59	58	2426.4685505354
5	60	59	2413.9258769645
5	61	60	2400.1156476981
5	62	61	2386.1670940989
5	63	62	2372.2466024841
5	64	63	2358.318574614
5	65	64	2344.3775140973
5	66	65	2330.4489642661
5	67	66	2316.5211350349
5	68	67	2302.5907464555
5	69	68	2288.6602010678
5	70	69	2274.7169750297
5	71	70	2260.7981725226
5	72	71	2246.862371614
5	73	72	2233.0750424088
5	74	73	2219.2591332041
5	75	74	2205.926626337
5	76	75	2192.7331559004
5	78	76	2179.5384372135
5	79	77	2168.8068011735
5	80	78	2160.9842224129
5	81	79	2155.6670266984
5	82	80	2152.4190880489
5	83	81	2150.7109277087
5	84	82	2149.9349449468
5	85	83	2149.5442428981
5	86	84	2149.4629357386
5	87	85	2149.4629357386
5	88	86	2149.4629357386
5	201	87	2149.4629357386
5	202	88	2149.4629357386
6	5	4	1578.4472822268
6	6	5	1578.4472822268
6	7	6	1579.5086799795
6	8	7	1581.463551742
6	9	8	1586.5215602648
6	10	9	1592.9907937236
6	11	10	1600.8370654397
6	12	11	1609.9987445669
6	13	12	1619.8356540762
6	14	13	1629.6860002102
6	15	14	1639.5136572961
6	16	15	1649.6652132459
6	17	16	1661.608180549
6	18	17	1673.8534141136
6	19	18	1682.7311922461
6	20	19	1692.0008722087
6	21	20	1695.5930600381
6	22	21	1697.3638825528
6	23	22	1698.4781867648
6	24	23	1699.3508925885
6	25	24	1700.1320105875
6	26	25	1700.6757637747
6	27	26	1700.9763333295
6	28	27	1702.0570003456
6	29	28	1709.2184885982
6	30	29	1718.486905667
6	31	30	1729.7221734524
6	32	31	1742.8166470975
6	33	32	1756.6257166937
6	34	33	1770.5424128035
6	35	34	1784.4431180377
6	36	35	1798.3453813354
6	37	36	1812.2489111917
6	38	37	1826.1338232355
6	39	38	1840.0052115899
6	40	39	1853.8865276687
6	41	40	1867.7613132671
6	42	41	1881.6495191753
6	43	42	1895.5577214556
6	44	43	1909.4568237681
6	45	44	1923.3535482474
6	46	45	1937.2407883173
6	47	46	1951.1177424677
6	48	47	1965.0138413142
6	49	48	1978.8952731136
6	50	49	1992.7971214326
6	51	50	2006.673840113
6	52	51	2020.5721973078
6	53	52	2034.4503232781
6	54	53	2048.3538283575
6	55	54	2062.237618464
6	56	55	2076.1422634898
6	57	56	2090.0447951443
6	58	57	2103.4108257322
6	59	58	2113.9630808383
6	60	59	2119.9180992302
6	61	60	2120.6601283913
6	62	61	2120.1890040431
6	63	62	2119.718827513
6	64	63	2119.2483964385
6	65	64	2118.7775251754
6	66	65	2118.3070764719
6	67	66	2117.8366521066
6	68	67	2117.3661412979
6	69	68	2116.8956251917
6	70	69	2116.4246807871
6	71	70	2115.9545613071
6	72	71	2115.4322686028
6	73	72	2113.4771187576
6	74	73	2111.517916047
6	75	74	2107.6334060756
6	76	75	2103.1587952022
6	78	76	2098.6837609811
6	79	77	2092.6927116383
6	80	78	2088.087683036
6	81	79	2084.9575338745
6	82	80	2083.0455236752
6	83	81	2082.0399566535
6	84	82	2081.5831478545
6	85	83	2081.3531477274
6	86	84	2081.3052834859
6	87	85	2081.3052834859
6	88	86	2081.3052834859
6	201	87	2081.3052834859
6	202	88	2081.3052834859
7	6	5	4.0425376740037
7	7	6	5.9899797741635
7	8	7	7.995898233327
7	9	8	9.9805223184414
7	10	9	11.797888050693
7	11	10	13.711042579702
7	12	11	13.828882815507
7	13	12	13.877056018973
7	14	13	13.822265241607
7	15	14	13.826240355759
7	16	15	13.808232359637
7	17	16	13.886041114451
7	18	17	13.779637337967
7	19	18	13.87089693659
7	20	19	13.879995662286
7	21	20	12.980844245236
7	22	21	10.404319461008
7	23	22	8.8425697783867
7	24	23	7.2109338321766
7	25	24	4.608315968755
7	26	25	4.3773556644424
7	27	26	6.6180400394114
7	28	27	8.4636127357465
7	29	28	10.244112935267
7	30	29	12.2148184848
7	31	30	13.90559046577
7	32	31	13.958849466594
7	33	32	13.899495692984
7	34	33	13.880101194263
7	35	34	13.957604700155
7	36	35	13.965432267999
7	37	36	13.883948068053
7	38	37	13.901537147078
7	39	38	13.876915067681
7	40	39	13.951732696672
7	41	40	13.902430235415
7	42	41	13.996044553258
7	43	42	13.991082411509
7	44	43	13.975909319944
7	45	44	13.979870708201
7	46	45	13.890797829442
7	47	46	13.93253966168
7	48	47	13.930827986803
7	49	48	13.950643362533
7	50	49	13.976144419545
7	51	50	13.884250787057
7	52	51	13.932612366618
7	53	52	13.986895412421
7	54	53	13.893358231112
7	55	54	13.920084255943
7	56	55	13.966285604062
7	57	56	13.982772746813
7	58	57	13.940500979689
7	59	58	13.901260280323
7	60	59	13.934687188803
7	61	60	13.983820120385
7	62	61	13.973419324872
7	63	62	13.952749270119
7	64	63	13.996735759652
7	65	64	13.959173149294
7	66	65	13.989684698284
7	67	66	13.920656501474
7	68	67	13.975558964037
7	69	68	13.950499276761
7	70	69	13.907489486693
7	71	70	13.89578928089
7	72	71	13.884069890059
7	73	72	13.932060745752
7	74	73	13.981948012542
7	75	74	13.961519885908
7	76	75	13.931161227254
7	78	76	10.782355743709
7	79	77	7.7437641265813
7	80	78	4.9848790395759
7	81	79	2.8788180215146
7	82	80	1.3624478935399
7	83	81	0.58108485691988
7	84	82	0.43167675860343
7	85	83	0
7	86	84	0
7	87	85	0
7	88	86	0
7	201	87	0
7	202	88	0
8	7	6	1.9474421001598
8	8	7	2.0059184591635
8	9	8	1.9846240851143
8	10	9	1.8173657322512
8	11	10	1.9131545290095
8	12	11	0.11784023580519
8	13	12	0.048173203465995
8	14	13	-0.054790777366142
8	15	14	0.0039751141518352
8	16	15	-0.018007996121888
8	17	16	0.077808754814324
8	18	17	-0.10640377648408
8	19	18	0.091259598622564
8	20	19	0.0090987256960933
8	21	20	-0.89915141704996
8	22	21	-2.5765247842278
8	23	22	-1.5617496826214
8	24	23	-1.6316359462101
8	25	24	-2.6026178634216
8	26	25	-0.23096030431261
8	27	26	2.240684374969
8	28	27	1.8455726963351
8	29	28	1.78050019952
8	30	29	1.970705549533
8	31	30	1.6907719809701
8	32	31	0.053259000824763
8	33	32	-0.0593537736102
8	34	33	-0.019394498721232
8	35	34	0.077503505891656
8	36	35	0.0078275678446502
8	37	36	-0.08148419994628
8	38	37	0.017589079025202
8	39	38	-0.024622079397087
8	40	39	0.074817628990859
8	41	40	-0.049302461256739
8	42	41	0.093614317842293
8	43	42	-0.0049621417489831
8	44	43	-0.015173091564794
8	45	44	0.003961388256867
8	46	45	-0.089072878758888
8	47	46	0.041741832238621
8	48	47	-0.0017116748774431
8	49	48	0.019815375730396
8	50	49	0.025501057012008
8	51	50	-0.091893632488791
8	52	51	0.048361579561606
8	53	52	0.05428304580273
8	54	53	-0.093537181308493
8	55	54	0.026726024830714
8	56	55	0.046201348118485
8	57	56	0.016487142750993
8	58	57	-0.042271767123601
8	59	58	-0.039240699366202
8	60	59	0.03342690848047
8	61	60	0.049132931581697
8	62	61	-0.010400795512831
8	63	62	-0.020670054752847
8	64	63	0.043986489532982
8	65	64	-0.037562610358
8	66	65	0.030511548989454
8	67	66	-0.069028196809814
8	68	67	0.054902462563478
8	69	68	-0.025059687276372
8	70	69	-0.043009790068027
8	71	70	-0.011700205802917
8	72	71	-0.011719390831422
8	73	72	0.047990855693351
8	74	73	0.049887266790028
8	75	74	-0.020428126633632
8	76	75	-0.03035865865415
8	78	76	-3.1488054835454
8	79	77	-3.0385916171276
8	80	78	-2.7588850870054
8	81	79	-2.1060610180613
8	82	80	-1.5163701279747
8	83	81	-0.78136303662007
8	84	82	-0.14940809831645
8	85	83	-0.43167675860343
8	86	84	0
8	87	85	0
8	88	86	0
8	201	87	0
8	202	88	0
9	7	6	4.2301091069722
9	8	7	5.4083752898229
9	9	8	6.4569285084612
9	10	9	6.9981297601067
9	11	10	8.3312879690391
9	12	11	2.4141445356829
9	13	12	2.1874061765078
9	14	13	1.8382242624125
9	15	14	2.0343893016141
9	16	15	1.9593955015171
9	17	16	2.2876002045415
9	18	17	1.6630794257514
9	19	18	2.3307419132725
9	20	19	2.0570318190542
9	21	20	0.973
9	22	21	0.973
9	23	22	0.973
9	24	23	0.973
9	25	24	0.973
9	26	25	0.973
9	27	26	5.0298054635758
9	28	27	5.3387626171002
9	29	28	6.0992411196982
9	30	29	7.6689071873388
9	31	30	7.6953946644296
9	32	31	2.2138015462716
9	33	32	1.8297571526508
9	34	33	1.9617299658648
9	35	34	2.2952115578408
9	36	35	2.0616520584725
9	37	36	1.754348913972
9	38	37	2.0877151155648
9	39	38	1.9439382944776
9	40	39	2.2854708098026
9	41	40	1.8636906702153
9	42	41	2.3542075109855
9	43	42	2.0212017762597
9	44	43	1.9852732682006
9	45	44	2.0501312890771
9	46	45	1.7295064557081
9	47	46	2.1721049310558
9	48	47	2.0260253266059
9	49	48	2.1004165056056
9	50	49	2.1222972100305
9	51	50	1.7195426961875
9	52	51	2.1943406010272
9	53	52	2.2204838817958
9	54	53	1.7147641271474
9	55	54	2.1203351901188
9	56	55	2.19090230073
9	57	56	2.0926411604769
9	58	57	1.8907404194004
9	59	58	1.897294422508
9	60	59	2.1444220061647
9	61	60	2.2027721979195
9	62	61	2.0010986474578
9	63	62	1.9645049360925
9	64	63	2.186888723854
9	65	64	1.9083002968928
9	66	65	2.1406602496428
9	67	66	1.799153459795
9	68	67	2.2212608375083
9	69	68	1.9495279777307
9	70	69	1.8852368861481
9	71	70	1.9890193069286
9	72	71	1.987796202425
9	73	72	2.1930331348408
9	74	73	2.2051001228538
9	75	74	1.9661718581163
9	76	75	1.9298795222038
9	78	76	0.973
9	79	77	0.973
9	80	78	0.973
9	81	79	0.973
9	82	80	0.973
9	83	81	0.973
9	84	82	0.973
9	85	83	0.973
9	86	84	0.973
9	87	85	0.973
9	88	86	0.973
9	201	87	0.973
9	202	88	0.973
10	8	7	2414.8643472419
10	9	8	2414.8643472419
10	10	9	2411.8465674153
10	11	10	2407.0751619119
10	12	11	2401.9577723494
10	13	12	2395.5213123296
10	14	13	2387.7087995238
10	15	14	2378.6645003178
10	16	15	2368.959892839
10	17	16	2359.2436881992
10	18	17	2349.5257989697
10	19	18	2340.2293134446
10	20	19	2334.3741925983
10	21	20	2338.4902559273
10	22	21	2349.0637835636
10	23	22	2359.3325193408
10	24	23	2372.3952800828
10	25	24	2385.8180993537
10	26	25	2397.0038011799
10	27	26	2405.8023876963
10	28	27	2413.7531771549
10	29	28	2419.729250594
10	30	29	2423.5932595561
10	31	30	2428.8903712623
10	32	31	2431.2812006058
10	33	32	2432.6822061189
10	34	33	2434.3700695642
10	35	34	2436.3585194757
10	36	35	2438.2497499143
10	37	36	2439.1169193694
10	38	37	2440.1046921196
10	39	38	2441.115086708
10	40	39	2442.1261118237
10	41	40	2443.1377155239
10	42	41	2444.1476922065
10	43	42	2445.1579501015
10	44	43	2446.1680085229
10	45	44	2447.1787793803
10	46	45	2448.1881593283
10	47	46	2449.1992480544
10	48	47	2450.2085794064
10	49	48	2450.0444208245
10	50	49	2448.9305253987
10	51	50	2447.8184346318
10	52	51	2446.7052657892
10	53	52	2445.5928591817
10	54	53	2444.4805304101
10	55	54	2443.3682148781
10	56	55	2442.255736784
10	57	56	2441.1434947379
10	58	57	2440.1038394088
10	59	58	2439.1631091675
10	60	59	2438.5787487919
10	61	60	2435.8641543117
10	62	61	2427.4413532102
10	63	62	2415.0838110263
10	64	63	2401.2879985808
10	65	64	2387.3628280063
10	66	65	2373.4412519759
10	67	66	2359.5315468983
10	68	67	2345.5959753867
10	69	68	2331.6806919676
10	70	69	2317.7556696841
10	71	70	2303.8234686099
10	72	71	2289.9066709485
10	73	72	2275.977403403
10	74	73	2262.0577368392
10	75	74	2248.1309546534
10	76	75	2234.3316349497
10	78	76	2220.5176383586
10	79	77	2207.1306797217
10	80	78	2193.9224607782
10	81	79	2181.3903030875
10	82	80	2171.9355854638
10	83	81	2164.967825008
10	84	82	2160.0057780119
10	85	83	2156.8622328936
10	86	84	2155.0851943567
10	87	85	2154.2757044442
10	88	86	2153.8778709936
10	201	87	2153.7726232109
10	202	88	2153.7726232109
11	8	7	1578.4552257098
11	9	8	1578.4552257098
11	10	9	1579.5633387128
11	11	10	1581.6413314342
11	12	11	1586.8245420614
11	13	12	1593.34378934
11	14	13	1601.2567885192
11	15	14	1610.4174176231
11	16	15	1620.2468480403
11	17	16	1630.0880247839
11	18	17	1639.930907785
11	19	18	1650.1009178087
11	20	19	1662.1764669651
11	21	20	1674.2253269516
11	22	21	1683.1264202939
11	23	22	1692.387023421
11	24	23	1695.6767929578
11	25	24	1697.4176483825
11	26	25	1698.4922589781
11	27	26	1699.3242240893
11	28	27	1700.0760243274
11	29	28	1700.6411019787
11	30	29	1700.9535740502
11	31	30	1701.7146825381
11	32	31	1708.2536209365
11	33	32	1717.4729495877
11	34	33	1728.5799492933
11	35	34	1741.6649607867
11	36	35	1755.4703987651
11	37	36	1769.3869429482
11	38	37	1783.2837020587
11	39	38	1797.178620101
11	40	39	1811.0822091382
11	41	40	1824.9937548526
11	42	41	1838.8829258671
11	43	42	1852.7759641046
11	44	43	1866.6662591882
11	45	44	1880.5663516708
11	46	45	1894.4473164072
11	47	46	1908.3517802125
11	48	47	1922.2320766579
11	49	48	1936.1232278785
11	50	49	1950.0260899803
11	51	50	1963.906427593
11	52	51	1977.8002209924
11	53	52	1991.6845007064
11	54	53	2005.567808928
11	55	54	2019.4509519003
11	56	55	2033.3361238614
11	57	56	2047.2183496347
11	58	57	2061.1031638989
11	59	58	2075.0021947743
11	60	59	2088.9022258604
11	61	60	2102.4303971548
11	62	61	2113.3453272581
11	63	62	2119.6553589245
11	64	63	2120.6997255469
11	65	64	2120.2293909807
11	66	65	2119.7591778226
11	67	66	2119.2893656166
11	68	67	2118.818679749
11	69	68	2118.34867913
11	70	69	2117.8783495724
11	71	70	2117.4077775441
11	72	71	2116.9377257805
11	73	72	2116.4672528347
11	74	73	2115.9971041707
11	75	74	2115.5267151715
11	76	75	2113.6553132925
11	78	76	2111.6963818055
11	79	77	2108.0417649215
11	80	78	2103.5621520421
11	81	79	2099.3118276615
11	82	80	2094.5345775485
11	83	81	2090.4327669851
11	84	82	2087.5116882669
11	85	83	2085.6611328907
11	86	84	2084.6150183622
11	87	85	2084.1384844324
11	88	86	2083.9042861611
11	201	87	2083.8423284534
11	202	88	2083.8423284534
12	9	8	4.0617275998512
12	10	9	6.1353786575448
12	11	10	8.1828713404717
12	12	11	10.026246972497
12	13	12	11.901434952405
12	14	13	13.729458843144
12	15	14	13.763869230964
12	16	15	13.889992804453
12	17	16	13.826552683001
12	18	17	13.776342563913
12	19	18	13.888514430835
12	20	19	13.828965220305
12	21	20	13.778496056341
12	22	21	13.857085145169
12	23	22	13.766376160912
12	24	23	12.737810516921
12	25	24	10.1562103494
12	26	25	8.1433081963885
12	27	26	7.5447119894612
12	28	27	4.8419778733363
12	29	28	4.047977735176
12	30	29	6.3017385411745
12	31	30	8.1665927836222
12	32	31	10.244112627128
12	33	32	12.180936530621
12	34	33	13.907441225059
12	35	34	13.905419330166
12	36	35	13.97873735718
12	37	36	13.953873252473
12	38	37	13.987689359703
12	39	38	13.956023419145
12	40	39	13.987304245315
12	41	40	13.947425098859
12	42	41	13.901266286944
12	43	42	13.959874486474
12	44	43	13.995451386345
12	45	44	13.946377406444
12	46	45	13.91522807166
12	47	46	13.923620001134
12	48	47	13.968134914574
12	49	48	13.94734460603
12	50	49	13.915738437143
12	51	50	13.930726964653
12	52	51	13.88642150227
12	53	52	13.970134633023
12	54	53	13.923417213422
12	55	54	13.885102692018
12	56	55	13.960453912024
12	57	56	13.902490299838
12	58	57	13.959650587267
12	59	58	13.902877053842
12	60	59	13.960713054
12	61	60	13.981804280421
12	62	61	13.892285811328
12	63	62	13.96150352573
12	64	63	13.97851549631
12	65	64	13.939609162759
12	66	65	13.873145520629
12	67	66	13.910493472596
12	68	67	13.893685072821
12	69	68	13.974631973985
12	70	69	13.912472284555
12	71	70	13.942956796789
12	72	71	13.90340702411
12	73	72	13.943396546461
12	74	73	13.90439619571
12	75	74	13.941707357548
12	76	75	13.911673686597
12	78	76	13.991111218457
12	79	77	13.963979252474
12	80	78	12.169467155863
12	81	79	9.4918842513916
12	82	80	6.9972765053906
12	83	81	4.7294589982007
12	84	82	2.8500011517274
12	85	83	1.4571949615832
12	86	84	0.60921061146725
12	87	85	0.44462530183315
12	88	86	0
12	201	87	0
12	202	88	0
13	10	9	2.0736510576936
13	11	10	2.0474926829268
13	12	11	1.8433756320248
13	13	12	1.8751879799087
13	14	13	1.8280238907388
13	15	14	0.034410387819753
13	16	15	0.12612357348902
13	17	16	-0.063440121451858
13	18	17	-0.050210119087716
13	19	18	0.11217186692171
13	20	19	-0.059549210530239
13	21	20	-0.050469163963571
13	22	21	0.078589088828302
13	23	22	-0.090708984257653
13	24	23	-1.0285656439904
13	25	24	-2.5816001675213
13	26	25	-2.0129021530115
13	27	26	-0.59859620692737
13	28	27	-2.7027341161249
13	29	28	-0.79400013816029
13	30	29	2.2537608059985
13	31	30	1.8648542424478
13	32	31	2.0775198435062
13	33	32	1.9368239034922
13	34	33	1.7265046944383
13	35	34	-0.0020218948926765
13	36	35	0.073318027013446
13	37	36	-0.024864104706793
13	38	37	0.033816107229795
13	39	38	-0.03166594055714
13	40	39	0.031280826169532
13	41	40	-0.039879146455787
13	42	41	-0.046158811915666
13	43	42	0.05860819953028
13	44	43	0.035576899871231
13	45	44	-0.04907397990115
13	46	45	-0.03114933478413
13	47	46	0.0083919294737278
13	48	47	0.044514913440215
13	49	48	-0.020790308543946
13	50	49	-0.031606168886647
13	51	50	0.01498852750985
13	52	51	-0.0443054623832
13	53	52	0.083713130753022
13	54	53	-0.046717419601046
13	55	54	-0.038314521403517
13	56	55	0.075351220006123
13	57	56	-0.057963612186722
13	58	57	0.057160287429578
13	59	58	-0.056773533425295
13	60	59	0.057836000157986
13	61	60	0.021091226420832
13	62	61	-0.089518469092438
13	63	62	0.069217714401894
13	64	63	0.017011970579624
13	65	64	-0.038906333551276
13	66	65	-0.066463642129674
13	67	66	0.037347951966803
13	68	67	-0.016808399774598
13	69	68	0.080946901163552
13	70	69	-0.062159689429683
13	71	70	0.030484512234107
13	72	71	-0.039549772678875
13	73	72	0.039989522350952
13	74	73	-0.039000350751449
13	75	74	0.037311161838007
13	76	75	-0.030033670950216
13	78	76	0.079437531859149
13	79	77	-0.027131965982262
13	80	78	-1.7945120966118
13	81	79	-2.677582904471
13	82	80	-2.494607746001
13	83	81	-2.2678175071899
13	84	82	-1.8794578464732
13	85	83	-1.3928061901442
13	86	84	-0.84798435011595
13	87	85	-0.16458530963411
13	88	86	-0.44462530183315
13	201	87	0
13	202	88	0
14	10	9	4.4934607714223
14	11	10	5.5931609271493
14	12	11	6.1409699278974
14	13	12	7.2183547368087
14	14	13	8.0599481107884
14	15	14	2.1289879205255
14	16	15	2.4498094552081
14	17	16	1.8097802206707
14	18	17	1.8494001186336
14	19	18	2.4029159609423
14	20	19	1.8229551099466
14	21	20	1.8487310406807
14	22	21	2.286722232178
14	23	22	1.7141531649253
14	24	23	0.973
14	25	24	0.973
14	26	25	0.973
14	27	26	0.973
14	28	27	0.973
14	29	28	0.973
14	30	29	4.859943388921
14	31	30	5.2245819475293
14	32	31	6.8325323108464
14	33	32	7.5503205599407
14	34	33	7.8161023756118
14	35	34	2.0224064116742
14	36	35	2.2836680490061
14	37	36	1.9505101035233
14	38	37	2.1515808882797
14	39	38	1.9278396813074
14	40	39	2.1429920090493
14	41	40	1.8994193906699
14	42	41	1.8741178806837
14	43	42	2.2319159732068
14	44	43	2.1583786869151
14	45	44	1.8684178979242
14	46	45	1.9257198933424
14	47	46	2.0591966959206
14	48	47	2.1854350053106
14	49	48	1.963575444549
14	50	49	1.9242359894757
14	51	50	2.0820827379912
14	52	51	1.8789752077659
14	53	52	2.3176337226932
14	54	53	1.8742537874068
14	55	54	1.8989027424592
14	56	55	2.2883147836028
14	57	56	1.8346768837701
14	58	57	2.2270187420758
14	59	58	1.8386983250962
14	60	59	2.2294154726941
14	61	60	2.1080521092778
14	62	61	1.7281340173471
14	63	62	2.2678036305498
14	64	63	2.0939563169341
14	65	64	1.9019644467829
14	66	65	1.8036834463438
14	67	66	2.1549053382361
14	68	67	1.9717069827147
14	69	68	2.3088683881628
14	70	69	1.8214849888471
14	71	70	2.1354456342454
14	72	71	1.8964570484068
14	73	72	2.1674340138474
14	74	73	1.898389423874
14	75	74	2.158246083297
14	76	75	1.9291249234801
14	78	76	2.305788392307
14	79	77	1.9438507119712
14	80	78	0.973
14	81	79	0.973
14	82	80	0.973
14	83	81	0.973
14	84	82	0.973
14	85	83	0.973
14	86	84	0.973
14	87	85	0.973
14	88	86	0.973
14	201	87	0.973
14	202	88	0.973
15	11	10	2414.8589683208
15	12	11	2414.8589683208
15	13	12	2411.9960360894
15	14	13	2407.3778635573
15	15	14	2402.3636346096
15	16	15	2395.8982874734
15	17	16	2388.0410267571
15	18	17	2378.8728262685
15	19	18	2369.1624457003
15	20	19	2359.4430083804
15	21	20	2349.7201914137
15	22	21	2340.3800566439
15	23	22	2334.4143217347
15	24	23	2338.2892073892
15	25	24	2348.8763031391
15	26	25	2359.1555561594
15	27	26	2372.1732133172
15	28	27	2385.4747336943
15	29	28	2396.7136462486
15	30	29	2405.5287663507
15	31	30	2413.361303885
15	32	31	2419.4787928442
15	33	32	2423.4445097782
15	34	33	2428.8289907725
15	35	34	2431.2955136957
15	36	35	2432.699838591
15	37	36	2434.4034018992
15	38	37	2436.4053414367
15	39	38	2438.2717484479
15	40	39	2439.1372851115
15	41	40	2440.1267673417
15	42	41	2441.1362745936
15	43	42	2442.1483538623
15	44	43	2443.1589390305
15	45	44	2444.170568311
15	46	45	2445.1824969529
15	47	46	2446.1928200761
15	48	47	2447.2029174984
15	49	48	2448.2138351245
15	50	49	2449.2259933385
15	51	50	2450.2361953038
15	52	51	2450.0144359811
15	53	52	2448.9030743723
15	54	53	2447.7909828143
15	55	54	2446.6775656822
15	56	55	2445.5640358903
15	57	56	2444.4529546523
15	58	57	2443.3411836637
15	59	58	2442.2297813016
15	60	59	2441.1173151165
15	61	60	2440.0821574653
15	62	61	2439.1428616694
15	63	62	2438.5692170367
15	64	63	2435.705529806
15	65	64	2427.2048758511
15	66	65	2414.8043182266
15	67	66	2401.0206465733
15	68	67	2387.0955849747
15	69	68	2373.1557891442
15	70	69	2359.2450291273
15	71	70	2345.3368585452
15	72	71	2331.4229557245
15	73	72	2317.5114613648
15	74	73	2303.5826330757
15	75	74	2289.6356737798
15	76	75	2275.6871835425
15	78	76	2261.7738625362
15	79	77	2247.8361756316
15	80	78	2234.0072538625
15	81	79	2220.212318296
15	82	80	2206.8256031477
15	83	81	2193.7222016011
15	84	82	2182.3509531778
15	85	83	2173.8117225143
15	86	84	2167.6270367414
15	87	85	2163.3128339853
15	88	86	2160.6321868909
15	201	87	2159.1399359574
15	202	88	2158.4809089917
16	11	10	1578.4572008215
16	12	11	1578.4572008215
16	13	12	1579.5084545957
16	14	13	1581.3347363686
16	15	14	1586.4134595059
16	16	15	1592.9619654538
16	17	16	1600.9202881008
16	18	17	1610.2064121356
16	19	18	1620.041689897
16	20	19	1629.8861408997
16	21	20	1639.7340150196
16	22	21	1649.9079430513
16	23	22	1661.9347937321
16	24	23	1674.0629681665
16	25	24	1682.9573457511
16	26	25	1692.2274335911
16	27	26	1695.6436009901
16	28	27	1697.3767802063
16	29	28	1698.4648228921
16	30	29	1699.2983513642
16	31	30	1700.0389700923
16	32	31	1700.617419525
16	33	32	1700.9449604768
16	34	33	1701.6845037965
16	35	34	1708.3478083452
16	36	35	1717.5889802203
16	37	36	1728.7992930058
16	38	37	1741.9730730988
16	39	38	1755.7871776493
16	40	39	1769.7149016215
16	41	40	1783.5872798953
16	42	41	1797.4699953105
16	43	42	1811.3880810291
16	44	43	1825.2856199192
16	45	44	1839.1975174127
16	46	45	1853.1135317162
16	47	46	1867.0074669709
16	48	47	1880.8982983939
16	49	48	1894.8004092369
16	50	49	1908.7195806084
16	51	50	1922.6118497048
16	52	51	1936.4974776823
16	53	52	1950.3687144537
16	54	53	1964.2490619421
16	55	54	1978.1459543156
16	56	55	1992.0442528306
16	57	56	2005.9119902123
16	58	57	2019.788336576
16	59	58	2033.6600820031
16	60	59	2047.5451053241
16	61	60	2061.423508659
16	62	61	2075.3013459956
16	63	62	2089.2048590863
16	64	63	2102.694262919
16	65	64	2113.4954961864
16	66	65	2119.7187770642
16	67	66	2120.6906955037
16	68	67	2120.2203646181
16	69	68	2119.749536071
16	70	69	2119.2796882335
16	71	70	2118.8099278565
16	72	71	2118.3399738679
16	73	72	2117.8701012274
16	74	73	2117.3996431176
16	75	74	2116.9285726184
16	76	75	2116.4574504104
16	78	76	2115.9875160735
16	79	77	2115.5167587567
16	80	78	2113.6093135467
16	81	79	2111.6530850604
16	82	80	2107.9382971525
16	83	81	2103.4942334536
16	84	82	2099.6376354434
16	85	83	2095.6390298065
16	86	84	2091.9982029451
16	87	85	2089.458499901
16	88	86	2087.8804452829
16	201	87	2087.0019807201
16	202	88	2086.6140219513
17	12	11	3.8961603405194
17	13	12	5.9431185399189
17	14	13	8.1424288085645
17	15	14	10.062031823167
17	16	15	12.083120163764
17	17	16	13.873771702084
17	18	17	13.825241770302
17	19	18	13.820649462088
17	20	19	13.884200401348
17	21	20	13.830441952762
17	22	21	13.857247671166
17	23	22	13.774102051274
17	24	23	13.818229824884
17	25	24	13.862732506306
17	26	25	13.831968726097
17	27	26	12.680198226104
17	28	27	10.122298760552
17	29	28	8.0421381900996
17	30	29	7.613966482372
17	31	30	4.9749531689683
17	32	31	4.1331622456349
17	33	32	6.4759988591527
17	34	33	8.2334897181331
17	35	34	10.258088677589
17	36	35	12.161303491787
17	37	36	13.984538804872
17	38	37	13.973529279346
17	39	38	13.890129968924
17	40	39	13.90034316293
17	41	40	13.870257037382
17	42	41	13.974828972158
17	43	42	13.970242012145
17	44	43	13.94603371697
17	45	44	13.973461244183
17	46	45	13.913994905758
17	47	46	13.886887027461
17	48	47	13.877438676255
17	49	48	13.925698474394
17	50	49	13.901878093637
17	51	50	13.996326631282
17	52	51	13.961738867112
17	53	52	13.953224730594
17	54	53	13.95704034128
17	55	54	13.951851345866
17	56	55	13.926129935603
17	57	56	13.987716653978
17	58	57	13.870006634651
17	59	58	13.88925380036
17	60	59	13.884988515009
17	61	60	13.874761325421
17	62	61	13.882354206399
17	63	62	13.929109180849
17	64	63	13.891515203749
17	65	64	13.892359951755
17	66	65	13.884795026833
17	67	66	13.984148711371
17	68	67	13.96594609051
17	69	68	13.883855219076
17	70	69	13.877321401711
17	71	70	13.98026102399
17	72	71	13.9365859131
17	73	72	13.918686455546
17	74	73	13.935213858197
17	75	74	13.884775436304
17	76	75	13.916794079717
17	78	76	13.943595780893
17	79	77	13.959188628159
17	80	78	13.890704627903
17	81	79	13.959511514811
17	82	80	13.436754290741
17	83	81	10.865195538397
17	84	82	8.3956373206254
17	85	83	6.1718515788777
17	86	84	4.0275223301204
17	87	85	2.473466009684
17	88	86	1.2176674149571
17	201	87	0.49158781406687
17	202	88	0.43211747138703
18	13	12	2.0469581993995
18	14	13	2.1993102686456
18	15	14	1.9196030146023
18	16	15	2.0210883405968
18	17	16	1.7906515383201
18	18	17	-0.048529931781813
18	19	18	-0.0045923082134696
18	20	19	0.063550939259585
18	21	20	-0.053758448585867
18	22	21	0.026805718403775
18	23	22	-0.083145619891583
18	24	23	0.044127773609944
18	25	24	0.04450268142158
18	26	25	-0.030763780209234
18	27	26	-1.1517704999931
18	28	27	-2.5578994655512
18	29	28	-2.0801605704528
18	30	29	-0.42817170772759
18	31	30	-2.6390133134036
18	32	31	-0.8417909233334
18	33	32	2.3428366135177
18	34	33	1.7574908589805
18	35	34	2.0245989594562
18	36	35	1.9032148141973
18	37	36	1.8232353130858
18	38	37	-0.011009525526315
18	39	38	-0.083399310421663
18	40	39	0.010213194005191
18	41	40	-0.030086125547532
18	42	41	0.10457193477545
18	43	42	-0.0045869600120927
18	44	43	-0.02420829517534
18	45	44	0.027427527213003
18	46	45	-0.059466338425409
18	47	46	-0.027107878297102
18	48	47	-0.0094483512057923
18	49	48	0.048259798139334
18	50	49	-0.023820380757098
18	51	50	0.094448537644929
18	52	51	-0.034587764169554
18	53	52	-0.0085141365183521
18	54	53	0.0038156106858516
18	55	54	-0.0051889954134818
18	56	55	-0.025721410263795
18	57	56	0.061586718375329
18	58	57	-0.11771001932677
18	59	58	0.019247165708803
18	60	59	-0.0042652853508471
18	61	60	-0.010227189587896
18	62	61	0.0075928809773185
18	63	62	0.046754974450451
18	64	63	-0.037593977099752
18	65	64	0.00084474800620349
18	66	65	-0.0075649249227716
18	67	66	0.099353684538508
18	68	67	-0.018202620861119
18	69	68	-0.082090871434193
18	70	69	-0.0065338173648346
18	71	70	0.10293962227879
18	72	71	-0.043675110889598
18	73	72	-0.017899457553868
18	74	73	0.0165274026501
18	75	74	-0.050438421892467
18	76	75	0.032018643412739
18	78	76	0.026801701176446
18	79	77	0.015592847266234
18	80	78	-0.068484000256285
18	81	79	0.068806886908133
18	82	80	-0.52275722407031
18	83	81	-2.5715587523444
18	84	82	-2.4695582177712
18	85	83	-2.2237857417478
18	86	84	-2.1443292487573
18	87	85	-1.5540563204364
18	88	86	-1.2557985947269
18	201	87	-0.72607960089024
18	202	88	-0.059470342679847
19	13	12	4.3479287070716
19	14	13	5.8684224955075
19	15	14	6.3444418059827
19	16	15	7.7413344244095
19	17	16	8.0131483058135
19	18	17	1.859346589201
19	19	18	2.0052819924547
19	20	19	2.2396705737247
19	21	20	1.8423848291808
19	22	21	2.1138062272626
19	23	22	1.7398699978782
19	24	23	2.1672871780096
19	25	24	2.173522360813
19	26	25	1.9191724745649
19	27	26	0.973
19	28	27	0.973
19	29	28	0.973
19	30	29	0.973
19	31	30	0.973
19	32	31	0.973
19	33	32	5.1039936853489
19	34	33	5.0460831073471
19	35	34	6.7097801235723
19	36	35	7.4408992342029
19	37	36	8.1820651942236
19	38	37	1.999059654326
19	39	38	1.7484452538493
19	40	39	2.0628794280671
19	41	40	1.9250366233111
19	42	41	2.388459945351
19	43	42	2.0203556302289
19	44	43	1.9519602777969
19	45	44	2.1284936499169
19	46	45	1.8306488560147
19	47	46	1.9365734116418
19	48	47	1.994736359502
19	49	48	2.1932131415564
19	50	49	1.9490149766543
19	51	50	2.3570567152869
19	52	51	1.9185491213892
19	53	52	2.005428193481
19	54	53	2.0472832760279
19	55	54	2.0164711055601
19	56	55	1.9449666294976
19	57	56	2.2451997404264
19	58	57	1.63211510797
19	59	58	2.0919633454508
19	60	59	2.0128305419428
19	61	60	1.9918661394638
19	62	61	2.0522386893553
19	63	62	2.1885491259882
19	64	63	1.9019079323998
19	65	64	2.030681319425
19	66	65	2.0017696976337
19	67	66	2.3720627169918
19	68	67	1.9740933610069
19	69	68	1.7523113698108
19	70	69	2.0044721775133
19	71	70	2.3836533445922
19	72	71	1.8856672077803
19	73	72	1.9704918306701
19	74	73	2.0877249253829
19	75	74	1.8583031221121
19	76	75	2.137729802191
19	78	76	2.1231398389319
19	79	77	2.0871254407286
19	80	78	1.7984235376979
19	81	79	2.2661845890464
19	82	80	0.973
19	83	81	0.973
19	84	82	0.973
19	85	83	0.973
19	86	84	0.973
19	87	85	0.973
19	88	86	0.973
19	201	87	0.973
19	202	88	1.1246595406688
20	14	13	2414.8682432835
20	15	14	2414.8682432835
20	16	15	2411.9406654211
20	17	16	2407.316995816
20	18	17	2402.405677264
20	19	18	2396.0632877132
20	20	19	2388.36742038
20	21	20	2379.3216372107
20	22	21	2369.6082943316
20	23	22	2359.8989324635
20	24	23	2350.1810733151
20	25	24	2340.7916030446
20	26	25	2334.5230794349
20	27	26	2337.7766824955
20	28	27	2348.3842355192
20	29	28	2358.6399006653
20	30	29	2371.5057409919
20	31	30	2384.80878606
20	32	31	2396.164389991
20	33	32	2405.0937279091
20	34	33	2413.0416586228
20	35	34	2419.2705558947
20	36	35	2423.2064007508
20	37	36	2428.384422377
20	38	37	2431.2020954379
20	39	38	2432.6103043361
20	40	39	2434.335863249
20	41	40	2436.3454675978
20	42	41	2438.2444278585
20	43	42	2439.1116204252
20	44	43	2440.097715595
20	45	44	2441.1087192404
20	46	45	2442.1197209386
20	47	46	2443.1312509598
20	48	47	2444.1422746459
20	49	48	2445.1542331104
20	50	49	2446.1652353873
20	51	50	2447.1766792656
20	52	51	2448.1848661075
20	53	52	2449.1948836456
20	54	53	2450.2051779295
20	55	54	2450.0476900677
20	56	55	2448.9355443643
20	57	56	2447.8221913716
20	58	57	2446.7081100194
20	59	58	2445.5945709335
20	60	59	2444.4811899832
20	61	60	2443.3686589557
20	62	61	2442.2552554642
20	63	62	2441.1429808773
20	64	63	2440.1013961596
20	65	64	2439.1603909601
20	66	65	2438.5766462086
20	67	66	2435.8188237924
20	68	67	2427.368199395
20	69	68	2414.9854739726
20	70	69	2401.1890351963
20	71	70	2387.2620730967
20	72	71	2373.3424957717
20	73	72	2359.4198427222
20	74	73	2345.4780600619
20	75	74	2331.5577823995
20	76	75	2317.6391571773
20	78	76	2303.742326848
20	79	77	2289.8146329779
20	80	78	2275.8802072973
20	81	79	2261.9513716629
20	82	80	2248.0237897207
20	83	81	2234.2146746519
20	84	82	2220.410348313
20	85	83	2207.0376359797
20	86	84	2194.3294036634
20	87	85	2183.8574492881
20	88	86	2175.8880734141
20	201	87	2170.3655111736
20	202	88	2166.6354063739
21	14	13	1578.4537951043
21	15	14	1578.4537951043
21	16	15	1579.5287864162
21	17	16	1581.3963870052
21	18	17	1586.3708760887
21	19	18	1592.7948429426
21	20	19	1600.5896963272
21	21	20	1609.7518284814
21	22	21	1619.5901066558
21	23	22	1629.4243526142
21	24	23	1639.2672051471
21	25	24	1649.381099605
21	26	25	1661.2798126573
21	27	26	1673.6490734937
21	28	27	1682.5135868462
21	29	28	1691.7624025512
21	30	29	1695.5438349573
21	31	30	1697.2975175753
21	32	31	1698.4128870443
21	33	32	1699.2572155744
21	34	33	1700.008745498
21	35	34	1700.5977293309
21	36	35	1700.9311724268
21	37	36	1701.4659243356
21	38	37	1707.7330687083
21	39	38	1716.9997992963
21	40	39	1728.3548543463
21	41	40	1741.5790727939
21	42	41	1755.3937611617
21	43	42	1769.3016116759
21	44	43	1783.1877610879
21	45	44	1797.0910548642
21	46	45	1810.9943218641
21	47	46	1824.9048543479
21	48	47	1838.808423724
21	49	48	1852.7248481475
21	50	49	1866.6281231036
21	51	50	1880.5374709517
21	52	51	1894.4020281276
21	53	52	1908.2917609848
21	54	53	1922.1852996415
21	55	54	1936.0824234765
21	56	55	1949.9634467699
21	57	56	1963.8595386008
21	58	57	1977.7647213032
21	59	58	1991.6631358201
21	60	59	2005.5595765971
21	61	60	2019.4454092365
21	62	61	2033.3421313558
21	63	62	2047.2247632826
21	64	63	2061.1392622348
21	65	64	2075.0423555421
21	66	65	2088.9689828791
21	67	66	2102.5058027301
21	68	67	2113.3917817269
21	69	68	2119.6776720323
21	70	69	2120.6963829743
21	71	70	2120.2259878973
21	72	71	2119.755842247
21	73	72	2119.2855927125
21	74	73	2118.8146970579
21	75	74	2118.344527754
21	76	75	2117.8744142624
21	78	76	2117.4050369123
21	79	77	2116.9346171189
21	80	78	2116.4639699534
21	81	79	2115.9935115958
21	82	80	2115.5230955835
21	83	81	2113.6387274181
21	84	82	2111.6811672477
21	85	83	2108.0102088172
21	86	84	2103.7001681207
21	87	85	2100.1485687802
21	88	86	2096.8613447966
21	201	87	2093.610299604
21	202	88	2091.4144458054
22	15	14	3.968383932591
22	16	15	5.8748642683192
22	17	16	7.9362559172441
22	18	17	9.9305896650581
22	19	18	11.794895037909
22	20	19	13.720817502814
22	21	20	13.824554434547
22	22	21	13.885779511507
22	23	22	13.857575394399
22	24	23	13.77342104964
22	25	24	13.809109962026
22	26	25	13.859054342322
22	27	26	13.784302998006
22	28	27	13.797210306888
22	29	28	13.821329568063
22	30	29	12.894959798787
22	31	30	10.262728574804
22	32	31	8.1392749689274
22	33	32	7.8253933013955
22	34	33	5.1111134064231
22	35	34	3.8401488120046
22	36	35	6.16922661851
22	37	36	8.3379341680634
22	38	37	10.271920765839
22	39	38	12.41594978212
22	40	39	13.939007919561
22	41	40	13.991534597357
22	42	41	13.983658051526
22	43	42	13.875597592853
22	44	43	13.929937227769
22	45	44	13.890324414629
22	46	45	13.890671101299
22	47	46	13.871742811098
22	48	47	13.953656964817
22	49	48	13.913313797277
22	50	49	13.964141118235
22	51	50	13.897392886111
22	52	51	13.906024401416
22	53	52	13.938730715832
22	54	53	13.996569386746
22	55	54	13.889051586892
22	56	55	13.929664071444
22	57	56	13.878918963172
22	58	57	13.883235844418
22	59	58	13.949957976581
22	60	59	13.98058109469
22	61	60	13.902252215964
22	62	61	13.932179757708
22	63	62	13.878725283006
22	64	63	13.983196509299
22	65	64	13.898329754393
22	66	65	13.950246633322
22	67	66	13.929832368062
22	68	67	13.922578119142
22	69	68	13.973063721254
22	70	69	13.908969515818
22	71	70	13.981651481919
22	72	71	13.882119308352
22	73	72	13.960420284537
22	74	73	13.914490850545
22	75	74	13.888696706982
22	76	75	13.878248010387
22	78	76	13.979746428677
22	79	77	13.99277193906
22	80	78	13.97249246591
22	81	79	13.999783729354
22	82	80	13.964709493672
22	83	81	13.895168980334
22	84	82	13.956720087822
22	85	83	12.443457749454
22	86	84	10.033721918916
22	87	85	7.632012535902
22	88	86	5.3871825410398
22	201	87	3.5264531283887
22	202	88	2.0025012003425
23	16	15	1.9064803357283
23	17	16	2.0613916489249
23	18	17	1.9943337478139
23	19	18	1.8643053728505
23	20	19	1.9259224649053
23	21	20	0.10373693173285
23	22	21	0.061225076960399
23	23	22	-0.02820411710767
23	24	23	-0.084154344759881
23	25	24	0.03568891238654
23	26	25	0.049944380295928
23	27	26	-0.074751344316173
23	28	27	0.012907308882568
23	29	28	0.024119261174928
23	30	29	-0.92636976927622
23	31	30	-2.6322312239828
23	32	31	-2.123453605877
23	33	32	-0.31388166753188
23	34	33	-2.7142798949724
23	35	34	-1.2709645944185
23	36	35	2.3290778065054
23	37	36	2.1687075495534
23	38	37	1.9339865977759
23	39	38	2.1440290162805
23	40	39	1.5230581374413
23	41	40	0.052526677795687
23	42	41	-0.0078765458310954
23	43	42	-0.1080604586727
23	44	43	0.054339634915813
23	45	44	-0.039612813140264
23	46	45	0.00034668667009008
23	47	46	-0.018928290200419
23	48	47	0.081914153718389
23	49	48	-0.040343167539685
23	50	49	0.050827320958488
23	51	50	-0.066748232124374
23	52	51	0.0086315153050229
23	53	52	0.032706314416137
23	54	53	0.057838670914061
23	55	54	-0.10751779985381
23	56	55	0.040612484551966
23	57	56	-0.050745108271949
23	58	57	0.004316881245467
23	59	58	0.066722132163122
23	60	59	0.030623118109069
23	61	60	-0.078328878725879
23	62	61	0.029927541743964
23	63	62	-0.053454474702011
23	64	63	0.10447122629266
23	65	64	-0.084866754906253
23	66	65	0.051916878928896
23	67	66	-0.02041426525917
23	68	67	-0.0072542489203613
23	69	68	0.050485602112021
23	70	69	-0.064094205435831
23	71	70	0.072681966100355
23	72	71	-0.099532173566987
23	73	72	0.078300976185128
23	74	73	-0.045929433992132
23	75	74	-0.025794143562671
23	76	75	-0.010448696594686
23	78	76	0.1014984182897
23	79	77	0.013025510383304
23	80	78	-0.020279473150149
23	81	79	0.027291263444349
23	82	80	-0.035074235682842
23	83	81	-0.069540513337124
23	84	82	0.061551107487176
23	85	83	-1.5132623383675
23	86	84	-2.4097358305385
23	87	85	-2.4017093830136
23	88	86	-2.2448299948622
23	201	87	-1.8607294126511
23	202	88	-1.5239519280462
24	16	15	4.111410160151
24	17	16	5.4817166771151
24	18	17	6.4525035669608
24	19	18	7.1299882570681
24	20	19	8.3789960217513
24	21	20	2.3665952557696
24	22	21	2.2320718720702
24	23	22	1.9301265852709
24	24	23	1.7364666312896
24	25	24	2.1381834744899
24	26	25	2.1912850834915
24	27	26	1.7685803734202
24	28	27	2.0611270188273
24	29	28	2.1009865790682
24	30	29	0.973
24	31	30	0.973
24	32	31	0.973
24	33	32	0.973
24	34	33	0.973
24	35	34	0.973
24	36	35	4.8921284782847
24	37	36	5.9236628664753
24	38	37	6.4932864929795
24	39	38	8.3012154823685
24	40	39	7.149017370699
24	41	40	2.2150975712795
24	42	41	2.0106282275912
24	43	42	1.664792725858
24	44	43	2.2141055045994
24	45	44	1.8950394079559
24	46	45	2.0288418494613
24	47	46	1.9624783970012
24	48	47	2.3095665674818
24	49	48	1.8947112877794
24	50	49	2.2062271199542
24	51	50	1.80480717102
24	52	51	2.0581710573408
24	53	52	2.1424466540061
24	54	53	2.2335957087998
24	55	54	1.6676263617373
24	56	55	2.1679913442619
24	57	56	1.8567532149018
24	58	57	2.0413688879534
24	59	58	2.2580408987826
24	60	59	2.1400366155187
24	61	60	1.7664233114445
24	62	61	2.1323962722862
24	63	62	1.8476736861362
24	64	63	2.3891882427963
24	65	64	1.7441994982571
24	66	65	2.2082996319936
24	67	66	1.9631378931084
24	68	67	2.0065900856657
24	69	68	2.206098595123
24	70	69	1.8146960243525
24	71	70	2.2818747052243
24	72	71	1.6938177904823
24	73	72	2.2982350749296
24	74	73	1.8760868339344
24	75	74	1.9411429193835
24	76	75	1.9914709441173
24	78	76	2.3787322942209
24	79	77	2.0820319303487
24	80	78	1.9677409380341
24	81	79	2.1309047668547
24	82	80	1.9171909590573
24	83	81	1.795266035835
24	84	82	2.2414476022079
24	85	83	0.973
24	86	84	0.973
24	87	85	0.973
24	88	86	0.973
24	201	87	0.973
24	202	88	0.973
25	17	16	2414.8631819435
25	18	17	2414.8631819435
25	19	18	2411.9415166449
25	20	19	2407.4444889266
25	21	20	2402.6655951609
25	22	21	2396.3898098916
25	23	22	2388.7757259257
25	24	23	2379.8468471668
25	25	24	2370.1278486471
25	26	25	2360.4069784228
25	27	26	2350.6817057964
25	28	27	2341.2215783208
25	29	28	2334.6395133431
25	30	29	2337.2330844653
25	31	30	2347.8569306821
25	32	31	2358.1353602736
25	33	32	2370.8220415901
25	34	33	2384.1897997987
25	35	34	2395.6810765733
25	36	35	2404.716597343
25	37	36	2412.613130096
25	38	37	2418.9808111428
25	39	38	2423.0272111293
25	40	39	2428.2386964993
25	41	40	2431.16680274
25	42	41	2432.5503164834
25	43	42	2434.2225197988
25	44	43	2436.1773649128
25	45	44	2438.1222559706
25	46	45	2439.0418093801
25	47	46	2440.0190358916
25	48	47	2441.029853061
25	49	48	2442.0410254926
25	50	49	2443.0515698784
25	51	50	2444.0628799318
25	52	51	2445.0749399223
25	53	52	2446.0854260665
25	54	53	2447.0961287251
25	55	54	2448.1076503119
25	56	55	2449.1183981819
25	57	56	2450.1301388218
25	58	57	2450.13027782
25	59	58	2449.0170971616
25	60	59	2447.9037801087
25	61	60	2446.7910567985
25	62	61	2445.6776736877
25	63	62	2444.5650401645
25	64	63	2443.4523023982
25	65	64	2442.3390496352
25	66	65	2441.2262560629
25	67	66	2440.1740051279
25	68	67	2439.233178057
25	69	68	2438.6097327381
25	70	69	2436.3798238293
25	71	70	2428.2917387362
25	72	71	2416.0076813082
25	73	72	2402.2802413439
25	74	73	2388.3444165076
25	75	74	2374.4314233137
25	76	75	2360.5090156294
25	78	76	2346.5697850239
25	79	77	2332.644065113
25	80	78	2318.6870834457
25	81	79	2304.752973102
25	82	80	2290.8407365712
25	83	81	2276.9163215208
25	84	82	2262.9747577456
25	85	83	2249.0710032928
25	86	84	2235.2623608632
25	87	85	2221.4459402154
25	88	86	2208.0199493505
25	201	87	2195.8706712472
25	202	88	2186.054558659
26	17	16	1578.4556536013
26	18	17	1578.4556536013
26	19	18	1579.5284738513
26	20	19	1581.267254049
26	21	20	1586.1076150667
26	22	21	1592.4641209589
26	23	22	1600.1761390595
26	24	23	1609.2198631521
26	25	24	1619.063869711
26	26	25	1628.9097720487
26	27	26	1638.7601334136
26	28	27	1648.8306643292
26	29	28	1660.5786024798
26	30	29	1673.2100853929
26	31	30	1682.0380501365
26	32	31	1691.3073953884
26	33	32	1695.4416434895
26	34	33	1697.2238443969
26	35	34	1698.3671865333
26	36	35	1699.2215553606
26	37	36	1699.9682252649
26	38	37	1700.5703320298
26	39	38	1700.9207961904
26	40	39	1701.3942757789
26	41	40	1707.50082481
26	42	41	1716.6050487235
26	43	42	1727.6089968113
26	44	43	1740.4728716509
26	45	44	1754.2587602027
26	46	45	1768.1774131199
26	47	46	1782.1057600146
26	48	47	1796.0064893775
26	49	48	1809.9121042993
26	50	49	1823.8090823507
26	51	50	1837.716589842
26	52	51	1851.6344104484
26	53	52	1865.5305875633
26	54	53	1879.4297421789
26	55	54	1893.3401586711
26	56	55	1907.239935033
26	57	56	1921.1533639384
26	58	57	1935.0516210282
26	59	58	1948.9455619035
26	60	59	1962.8412051592
26	61	60	1976.7294377349
26	62	61	1990.6259054793
26	63	62	2004.5130173955
26	64	63	2018.4014304029
26	65	64	2032.2962712357
26	66	65	2046.1853807755
26	67	66	2060.0664846776
26	68	67	2073.96694618
26	69	68	2087.8871936491
26	70	69	2101.5726007456
26	71	70	2112.8053115718
26	72	71	2119.3251805026
26	73	72	2120.7332393965
26	74	73	2120.2625449728
26	75	74	2119.7926217075
26	76	75	2119.3223804608
26	78	76	2118.8515710039
26	79	77	2118.3812178839
26	80	78	2117.9098088704
26	81	79	2117.4391723555
26	82	80	2116.9692746466
26	83	81	2116.4989655986
26	84	82	2116.0280773379
26	85	83	2115.5584661197
26	86	84	2113.7872974202
26	87	85	2111.8280221839
26	88	86	2108.3433637749
26	201	87	2104.2228943231
26	202	88	2100.8937259791
27	18	17	3.8829045529919
27	19	18	5.6713325865333
27	20	19	7.7559437239751
27	21	20	9.8513306527002
27	22	21	11.782333207815
27	23	22	13.537933059381
27	24	23	13.861981254104
27	25	24	13.888893493533
27	26	25	13.869139206402
27	27	26	13.796217133983
27	28	27	13.802720147136
27	29	28	13.83516021332
27	30	29	13.841023635285
27	31	30	13.83760661962
27	32	31	13.865882674009
27	33	32	12.933265459376
27	34	33	10.364866658599
27	35	34	8.1524999463756
27	36	35	7.9879575850898
27	37	36	5.1526541352902
27	38	37	3.846452105611
27	39	38	6.2548322995775
27	40	39	8.1525704925786
27	41	40	10.078700799949
27	42	41	11.93529576221
27	43	42	13.911968711012
27	44	43	13.932401951677
27	45	44	13.966815613133
27	46	45	13.992326978301
27	47	46	13.920937693797
27	48	47	13.91624117906
27	49	48	13.872137795996
27	50	49	13.930335212557
27	51	50	13.985204934303
27	52	51	13.91704900282
27	53	52	13.884577546194
27	54	53	13.981019435509
27	55	54	13.936922482848
27	56	55	13.984833521203
27	57	56	13.960185016796
27	58	57	13.964914452687
27	59	58	13.914239585721
27	60	59	13.939665588122
27	61	60	13.893099070159
27	62	61	13.894239321765
27	63	62	13.958876398986
27	64	63	13.999639776004
27	65	64	13.920331323505
27	66	65	13.912822256028
27	67	66	13.887564719049
27	68	67	13.978792820778
27	69	68	13.915631996873
27	70	69	13.983196259558
27	71	70	13.890636970939
27	72	71	13.985845620527
27	73	72	13.91970289648
27	74	73	13.935417781654
27	75	74	13.896648303762
27	76	75	13.913384532223
27	78	76	13.909589839831
27	79	77	13.992580381436
27	80	78	13.998526805961
27	81	79	13.897277206478
27	82	80	13.963420462091
27	83	81	13.967802153295
27	84	82	13.917051670004
27	85	83	13.922436826862
27	86	84	13.998732355717
27	87	85	13.925916120599
27	88	86	11.71579135637
27	201	87	9.236747427953
27	202	88	6.942341985829
28	19	18	1.7884280335414
28	20	19	2.0846111374418
28	21	20	2.0953869287251
28	22	21	1.9310025551147
28	23	22	1.7555998515664
28	24	23	0.32404819472234
28	25	24	0.026912239429077
28	26	25	-0.019754287130199
28	27	26	-0.072922072419898
28	28	27	0.0065030131535604
28	29	28	0.032440066183918
28	30	29	0.0058634219644578
28	31	30	-0.0034170156647448
28	32	31	0.028276054388844
28	33	32	-0.93261721463228
28	34	33	-2.5683988007769
28	35	34	-2.2123667122238
28	36	35	-0.16454236128579
28	37	36	-2.8353034497997
28	38	37	-1.3062020296791
28	39	38	2.4083801939664
28	40	39	1.8977381930011
28	41	40	1.9261303073703
28	42	41	1.8565949622611
28	43	42	1.9766729488014
28	44	43	0.02043324066566
28	45	44	0.034413661456201
28	46	45	0.025511365167331
28	47	46	-0.071389284504111
28	48	47	-0.0046965147368621
28	49	48	-0.044103383063337
28	50	49	0.058197416560724
28	51	50	0.054869721746073
28	52	51	-0.068155931483489
28	53	52	-0.032471456625499
28	54	53	0.096441889314447
28	55	54	-0.044096952660475
28	56	55	0.047911038354504
28	57	56	-0.024648504406214
28	58	57	0.0047294358909138
28	59	58	-0.050674866966439
28	60	59	0.025426002400929
28	61	60	-0.046566517963075
28	62	61	0.0011402516067029
28	63	62	0.064637077220251
28	64	63	0.040763377018738
28	65	64	-0.079308452499099
28	66	65	-0.0075090674776597
28	67	66	-0.02525753697846
28	68	67	0.091228101728484
28	69	68	-0.06316082390491
28	70	69	0.0675642626849
28	71	70	-0.092559288619086
28	72	71	0.095208649588749
28	73	72	-0.06614272404695
28	74	73	0.015714885173367
28	75	74	-0.038769477892203
28	76	75	0.016736228461378
28	78	76	-0.00379469239153
28	79	77	0.082990541604813
28	80	78	0.0059464245242999
28	81	79	-0.1012495994824
28	82	80	0.06614325561328
28	83	81	0.0043816912034522
28	84	82	-0.050750483290757
28	85	83	0.0053851568582459
28	86	84	0.076295528854244
28	87	85	-0.072816235118081
28	88	86	-2.2101247642287
28	201	87	-2.4790439284168
28	202	88	-2.294405442124
29	19	18	3.844843790342
29	20	19	5.4237651898117
29	21	20	6.6483540738588
29	22	21	7.3126439375822
29	23	22	7.7201714729097
29	24	23	3.1073262287464
29	25	24	2.1175817440242
29	26	25	1.9594649930188
29	27	26	1.7756505179189
29	28	27	2.0403971440073
29	29	28	2.1302109475223
29	30	29	2.0421994508698
29	31	30	2.010899423668
29	32	31	2.119651765193
29	33	32	0.973
29	34	33	0.973
29	35	34	0.973
29	36	35	1.2256636544845
29	37	36	0.973
29	38	37	0.973
29	39	38	5.0647663295516
29	40	39	5.2819541272427
29	41	40	6.3692804522775
29	42	41	7.1831424811041
29	43	42	8.6572076133543
29	44	43	2.1005414474019
29	45	44	2.1512850382939
29	46	45	2.124089109857
29	47	46	1.7912561266686
29	48	47	2.0145333720526
29	49	48	1.8783517155613
29	50	49	2.2271027043119
29	51	50	2.2222659288982
29	52	51	1.8017713433435
29	53	52	1.9184061657161
29	54	53	2.3618561991731
29	55	54	1.8842811370927
29	56	55	2.1987698060262
29	57	56	1.9518428739572
29	58	57	2.0511712143054
29	59	58	1.8601510012131
29	60	59	2.1180915494303
29	61	60	1.8720125110435
29	62	61	2.0318623950462
29	63	62	2.2520815095858
29	64	63	2.1763427983195
29	65	64	1.7646375193493
29	66	65	2.0047584001126
29	67	66	1.9428308099331
29	68	67	2.3440117631218
29	69	68	1.8184021382344
29	70	69	2.2648135778991
29	71	70	1.7178222898715
29	72	71	2.3583059753219
29	73	72	1.8087518587592
29	74	73	2.0850177619632
29	75	74	1.8984468066811
29	76	75	2.0861121952083
29	78	76	2.0168863268403
29	79	77	2.317948602893
29	80	78	2.0587576912826
29	81	79	1.6892437687889
29	82	80	2.2576855283465
29	83	81	2.0502993196185
29	84	82	1.8601496091279
29	85	83	2.0489850168114
29	86	84	2.2961154507983
29	87	85	1.7868890507834
29	88	86	0.973
29	201	87	0.973
29	202	88	0.973
30	20	19	2414.8607989713
30	21	20	2414.8607989713
30	22	21	2411.9237998575
30	23	22	2407.2693992314
30	24	23	2402.2582021392
30	25	24	2395.8145541868
30	26	25	2388.0081592168
30	27	26	2378.8492501287
30	28	27	2369.1568603124
30	29	28	2359.434839341
30	30	29	2349.7136700194
30	31	30	2340.3859238615
30	32	31	2334.4162472507
30	33	32	2338.2883064853
30	34	33	2348.8776677274
30	35	34	2359.1437925096
30	36	35	2372.1506824567
30	37	36	2385.1485255219
30	38	37	2396.3552471454
30	39	38	2405.1418682267
30	40	39	2412.8633181204
30	41	40	2419.1683029977
30	42	41	2423.1541272294
30	43	42	2428.3717935286
30	44	43	2431.1803276693
30	45	44	2432.5562694361
30	46	45	2434.2167780654
30	47	46	2436.1815980144
30	48	47	2438.1274692934
30	49	48	2439.0441095615
30	50	49	2440.0188605944
30	51	50	2441.0291687492
30	52	51	2442.0390778936
30	53	52	2443.0493115789
30	54	53	2444.0600751746
30	55	54	2445.0686833075
30	56	55	2446.0792030827
30	57	56	2447.0908940624
30	58	57	2448.1012920425
30	59	58	2449.1126738706
30	60	59	2450.1222788134
30	61	60	2450.1386876865
30	62	61	2449.0256216542
30	63	62	2447.9119118809
30	64	63	2446.7995382911
30	65	64	2445.6855640123
30	66	65	2444.5727996721
30	67	66	2443.4610915576
30	68	67	2442.3482067711
30	69	68	2441.2358060614
30	70	69	2440.1803195608
30	71	70	2439.2401952308
30	72	71	2438.6082229678
30	73	72	2436.4410744094
30	74	73	2428.4011810233
30	75	74	2416.1353002599
30	76	75	2402.4126953788
30	78	76	2388.4910345566
30	79	77	2374.5618127049
30	80	78	2360.6402923843
30	81	79	2346.7213052117
30	82	80	2332.8037990564
30	83	81	2318.8684997587
30	84	82	2304.9397006978
30	85	83	2291.0344232057
30	86	84	2277.1121258576
30	87	85	2263.1716217935
30	88	86	2249.2387965452
30	201	87	2235.4181614449
30	202	88	2221.5920247521
31	20	19	1578.4565286171
31	21	20	1578.4565286171
31	22	21	1579.534979363
31	23	22	1581.4445957886
31	24	23	1586.5202480732
31	25	24	1593.0467757378
31	26	25	1600.9535783911
31	27	26	1610.2302915175
31	28	27	1620.0473471256
31	29	28	1629.8944150116
31	30	29	1639.7406202937
31	31	30	1649.9004320996
31	32	31	1661.9231975274
31	33	32	1674.0622406332
31	34	33	1682.958576371
31	35	34	1692.216824837
31	36	35	1695.6402333379
31	37	36	1697.3379541533
31	38	37	1698.4309338629
31	39	38	1699.2617675625
31	40	39	1699.9918822125
31	41	40	1700.588060637
31	42	41	1700.9281454524
31	43	42	1701.4597151522
31	44	43	1707.5898257224
31	45	44	1716.6442221794
31	46	45	1727.5712132864
31	47	46	1740.5007276125
31	48	47	1754.306191219
31	49	48	1768.2144539719
31	50	49	1782.1033493308
31	51	50	1795.9970787428
31	52	51	1809.8853209708
31	53	52	1823.7780262791
31	54	53	1837.6780188996
31	55	54	1851.5483696563
31	56	55	1865.4450092651
31	57	56	1879.3577552447
31	58	57	1893.2527199294
31	59	58	1907.1612144653
31	60	59	1921.0452733226
31	61	60	1934.9466549689
31	62	61	1948.8391651604
31	63	62	1962.7397100776
31	64	63	1976.6235776888
31	65	64	1990.5274239769
31	66	65	2004.416168659
31	67	66	2018.2917302744
31	68	67	2032.1819782844
31	69	68	2046.0661843857
31	70	69	2059.9731906652
31	71	70	2073.8632693654
31	72	71	2087.7583599146
31	73	72	2101.4707127614
31	74	73	2112.7358130328
31	75	74	2119.2681334438
31	76	75	2120.7377131451
31	78	76	2120.2674971232
31	79	77	2119.7970257215
31	80	78	2119.3268144457
31	81	79	2118.8566887286
31	82	80	2118.3866130346
31	83	81	2117.9159363611
31	84	82	2117.4454792393
31	85	83	2116.9758165786
31	86	84	2116.5055790581
31	87	85	2116.0347265899
31	88	86	2115.5641334802
31	201	87	2113.8093911475
31	202	88	2111.8487381004
32	21	20	3.9344378368136
32	22	21	5.9527796372048
32	23	22	8.0222770419273
32	24	23	10.033013923007
32	25	24	12.047020169017
32	26	25	13.814586101961
32	27	26	13.768107421112
32	28	27	13.873900225542
32	29	28	13.864052501973
32	30	29	13.767146519173
32	31	30	13.862383533192
32	32	31	13.797843317939
32	33	32	13.795675440561
32	34	33	13.785315698816
32	35	34	13.871563754163
32	36	35	12.527580180899
32	37	36	10.161893229161
32	38	37	7.9317865128252
32	39	38	7.80972653317
32	40	39	5.0990576555852
32	41	40	3.8784923764392
32	42	41	6.1976474820081
32	43	42	8.0000159964178
32	44	43	9.9431835248884
32	45	44	11.960195346838
32	46	45	13.987270119677
32	47	46	13.939719690538
32	48	47	13.878846123239
32	49	48	13.923425954028
32	50	49	13.971302986667
32	51	50	13.900355276116
32	52	51	13.872849740863
32	53	52	13.961806163525
32	54	53	13.876225726763
32	55	54	13.953687086666
32	56	55	13.960905501624
32	57	56	13.985695970107
32	58	57	13.95986231145
32	59	58	13.879060255815
32	60	59	13.92184912435
32	61	60	13.91280770536
32	62	61	13.965906402827
32	63	62	13.906169561702
32	64	63	13.93465087373
32	65	64	13.927104342389
32	66	65	13.981185457336
32	67	66	13.930442906951
32	68	67	13.943087917725
32	69	68	13.997970114148
32	70	69	13.884562699385
32	71	70	13.98116570787
32	72	71	13.961565298932
32	73	72	13.958366342478
32	74	73	13.917974073368
32	75	74	13.964979192
32	76	75	13.897402258774
32	78	76	13.974706125429
32	79	77	13.959968286895
32	80	78	13.934979039906
32	81	79	13.911381862918
32	82	80	13.922325055553
32	83	81	13.915284388058
32	84	82	13.875393737045
32	85	83	13.920774459227
32	86	84	13.994830339048
32	87	85	13.897567757904
32	88	86	13.906457726527
32	201	87	13.911182674069
32	202	88	13.320385536653
33	22	21	2.0183418003912
33	23	22	2.0694974047225
33	24	23	2.0107368810801
33	25	24	2.0140062460094
33	26	25	1.7675659329445
33	27	26	-0.046478680849541
33	28	27	0.10579280443024
33	29	28	-0.0098477235692567
33	30	29	-0.096905982799361
33	31	30	0.095237014018931
33	32	31	-0.064540215253365
33	33	32	-0.0021678773779428
33	34	33	-0.01035974174505
33	35	34	0.086248055347241
33	36	35	-1.3439835732645
33	37	36	-2.3656869517375
33	38	37	-2.230106716336
33	39	38	-0.12205997965515
33	40	39	-2.7106688775848
33	41	40	-1.2205652791461
33	42	41	2.3191551055689
33	43	42	1.8023685144098
33	44	43	1.9431675284705
33	45	44	2.0170118219499
33	46	45	2.0270747728386
33	47	46	-0.047550429138356
33	48	47	-0.060873567298986
33	49	48	0.044579830789008
33	50	49	0.047877032638061
33	51	50	-0.07094771055039
33	52	51	-0.027505535252857
33	53	52	0.088956422661431
33	54	53	-0.085580436761957
33	55	54	0.077461359903682
33	56	55	0.007218414957169
33	57	56	0.024790468483699
33	58	57	-0.025833658657504
33	59	58	-0.080802055634557
33	60	59	0.042788868534844
33	61	60	-0.0090414189896553
33	62	61	0.053098697466776
33	63	62	-0.059736841125414
33	64	63	0.028481312028598
33	65	64	-0.0075465313415037
33	66	65	0.05408111494733
33	67	66	-0.050742550385184
33	68	67	0.012645010773557
33	69	68	0.054882196423133
33	70	69	-0.11340741476277
33	71	70	0.096603008485399
33	72	71	-0.019600408938715
33	73	72	-0.0031989564537067
33	74	73	-0.040392269110306
33	75	74	0.047005118632223
33	76	75	-0.067576933226082
33	78	76	0.077303866655566
33	79	77	-0.014737838534638
33	80	78	-0.024989246989136
33	81	79	-0.023597176987677
33	82	80	0.010943192634731
33	83	81	-0.0070406674942927
33	84	82	-0.039890651013701
33	85	83	0.045380722181871
33	86	84	0.074055879821534
33	87	85	-0.097262581144459
33	88	86	0.0088899686234072
33	201	87	0.0047249475424174
33	202	88	-0.59079713741632
34	22	21	4.3122018088485
34	23	22	5.5457905004585
34	24	23	6.5491634530395
34	25	24	7.6999912872737
34	26	25	7.9047488362415
34	27	26	1.8610509571017
34	28	27	2.3797063913621
34	29	28	1.9920729374121
34	30	29	1.6936530367376
34	31	30	2.3429782033303
34	32	31	1.8036581997676
34	33	32	2.0108458943354
34	34	33	1.9825900281681
34	35	34	2.3140704796907
34	36	35	0.973
34	37	36	0.973
34	38	37	0.973
34	39	38	1.3010095239397
34	40	39	0.973
34	41	40	0.973
34	42	41	4.8949326339673
34	43	42	5.0181924861112
34	44	43	6.336898786477
34	45	44	7.6588564334995
34	46	45	8.8706741327697
34	47	46	1.8729350934445
34	48	47	1.8228690143339
34	49	48	2.180606672096
34	50	49	2.1971137005092
34	51	50	1.7909928275697
34	52	51	1.9339089904844
34	53	52	2.334256339721
34	54	53	1.7400172100012
34	55	54	2.2945962137121
34	56	55	2.0591310088567
34	57	56	2.1209390176207
34	58	57	1.9478245483866
34	59	58	1.7562297594156
34	60	59	2.1744199822886
34	61	60	1.9996189897859
34	62	61	2.2140742719685
34	63	62	1.8290573296657
34	64	63	2.1278094540118
34	65	64	2.0060627177226
34	66	65	2.2191438845488
34	67	66	1.8613779422174
34	68	67	2.0755141926257
34	69	68	2.2237851623112
34	70	69	1.6475785195952
34	71	70	2.3624174637291
34	72	71	1.9689613310604
34	73	72	2.0238232864938
34	74	73	1.8949761901174
34	75	74	2.1934592562766
34	76	75	1.8020324270546
34	78	76	2.2966080339102
34	79	77	1.9851649729736
34	80	78	1.9482734175395
34	81	79	1.9506765729793
34	82	80	2.067622243918
34	83	81	2.0065756391304
34	84	82	1.8927351079214
34	85	83	2.1829947652464
34	86	84	2.2880898294362
34	87	85	1.7026200228305
34	88	86	2.059082280831
34	201	87	2.0456100276601
34	202	88	0.973
35	23	22	2414.8922029244
35	24	23	2414.8922029244
35	25	24	2412.0508408658
35	26	25	2407.4982523205
35	27	26	2402.8139492105
35	28	27	2396.837677295
35	29	28	2389.4403513036
35	30	29	2380.6571505029
35	31	30	2370.9704633509
35	32	31	2361.2527868263
35	33	32	2351.5311285615
35	34	33	2341.9719352878
35	35	34	2334.8416137861
35	36	35	2336.3020461979
[...]
97	82	80	6.3551267581063
97	83	81	8.2420894322058
97	84	82	10.273581198543
97	85	83	11.889483598089
97	86	84	13.809069627812
97	87	85	13.996734256393
97	88	86	13.986071108168
97	201	87	13.968121716613
97	202	88	13.978390247212
98	61	60	1.9279119742359
98	62	61	1.7927290179208
98	63	62	1.7886013647844
98	64	63	2.0143801835505
98	65	64	1.881423407197
98	66	65	0.35580343235454
98	67	66	0.008707879036665
98	68	67	0.048843853662257
98	69	68	0.040590221299789
98	70	69	-0.052261475473642
98	71	70	-0.023683883531485
98	72	71	0.0069766975333909
98	73	72	-0.029408807344733
98	74	73	0.063633488041814
98	75	74	-1.0125296718894
98	76	75	-2.3894346820043
98	78	76	-2.282634540203
98	79	77	-0.11018052220641
98	80	78	-2.7102936396202
98	81	79	-1.3386426041293
98	82	80	2.3614502744144
98	83	81	1.8869626740995
98	84	82	2.0314917663368
98	85	83	1.6159023995465
98	86	84	1.9195860297233
98	87	85	0.18766462858047
98	88	86	-0.010663148225285
98	201	87	-0.017949391554575
98	202	88	0.010268530598841
99	61	60	4.1763422115383
99	62	61	4.8671737295805
99	63	62	5.7537774268918
99	64	63	7.4090862233843
99	65	64	8.0645900137508
99	66	65	3.1969669696275
99	67	66	2.0456684517838
99	68	67	2.1844970846532
99	69	68	2.1614979348265
99	70	69	1.846438018022
99	71	70	1.9393594850939
99	72	71	2.0420187831421
99	73	72	1.9182203089356
99	74	73	2.2344786640709
99	75	74	0.973
99	76	75	0.973
99	78	76	0.973
99	79	77	1.3324739045336
99	80	78	0.973
99	81	79	0.973
99	82	80	5.0570451819847
99	83	81	5.3074776505573
99	84	82	6.7356053369599
99	85	83	6.4689604980859
99	86	84	8.4077618683413
99	87	85	2.6715455138828
99	88	86	2.0014782016696
99	201	87	1.9751588407735
99	202	88	2.0712257319641
100	62	61	2414.8798167285
100	63	62	2414.8798167285
100	64	63	2411.9228726586
100	65	64	2407.1233783656
100	66	65	2401.9825877747
100	67	66	2395.4041468638
100	68	67	2387.44207139
100	69	68	2378.1639457401
100	70	69	2368.4395271883
100	71	70	2358.7297358684
100	72	71	2349.0243708569
100	73	72	2339.7640411365
100	74	73	2334.2514106048
100	75	74	2339.0626526421
100	76	75	2349.6050972554
100	78	76	2359.8823251674
100	79	77	2373.1513024581
100	80	78	2385.9124016172
100	81	79	2396.9200984403
100	82	80	2405.5276750872
100	83	81	2413.1909671676
100	84	82	2419.3451866549
100	85	83	2423.3693991911
100	86	84	2428.8472830999
100	87	85	2431.3144562518
100	88	86	2432.7509881079
100	201	87	2434.4725155311
100	202	88	2436.479777514
101	62	61	1578.4495453956
101	63	62	1578.4495453956
101	64	63	1579.5353198256
101	65	64	1581.5924948091
101	66	65	1586.7994074542
101	67	66	1593.4624618161
101	68	67	1601.5269473726
101	69	68	1610.9244104512
101	70	69	1620.7739067562
101	71	70	1630.6085876906
101	72	71	1640.4387853835
101	73	72	1650.696538779
101	74	73	1662.915907776
101	75	74	1674.6875717212
101	76	75	1683.6145905396
101	78	76	1692.8828520859
101	79	77	1695.7897944264
101	80	78	1697.4288724558
101	81	79	1698.484344325
101	82	80	1699.2982481774
101	83	81	1700.0228636181
101	84	82	1700.6047861679
101	85	83	1700.9406110886
101	86	84	1701.6934975246
101	87	85	1708.4724599961
101	88	86	1717.9255700493
101	201	87	1729.2540958468
101	202	88	1742.4629003359
102	63	62	4.0738063043258
102	64	63	6.2136504672766
102	65	64	8.2112267450006
102	66	65	10.294814791632
102	67	66	12.165962958424
102	68	67	13.86896775014
102	69	68	13.876236289574
102	70	69	13.794448432892
102	71	70	13.771982666475
102	72	71	13.885116730593
102	73	72	13.860783820827
102	74	73	13.794580172747
102	75	74	13.806330196564
102	76	75	13.882566237752
102	78	76	13.730980842271
102	79	77	12.352543931911
102	80	78	9.9291972404755
102	81	79	7.741232944914
102	82	80	7.7944709145528
102	83	81	4.9629938869661
102	84	82	4.207931750175
102	85	83	6.5381678661964
102	86	84	8.3842383885341
102	87	85	10.445021441896
102	88	86	12.262177981548
102	201	87	13.913023529402
102	202	88	13.909038094988
103	64	63	2.1398441629508
103	65	64	1.997576277724
103	66	65	2.0835880466318
103	67	66	1.8711481667915
103	68	67	1.7030047917161
103	69	68	0.0072685394342979
103	70	69	-0.081787856682203
103	71	70	-0.022465766416863
103	72	71	0.11313406411791
103	73	72	-0.024332909765652
103	74	73	-0.066203648080119
103	75	74	0.011750023816713
103	76	75	0.07623604118824
103	78	76	-0.15158539548126
103	79	77	-1.3784369103601
103	80	78	-2.4233466914354
103	81	79	-2.1879642955616
103	82	80	0.053237969638852
103	83	81	-2.8314770275867
103	84	82	-0.75506213679107
103	85	83	2.3302361160214
103	86	84	1.8460705223377
103	87	85	2.0607830533618
103	88	86	1.8171565396525
103	201	87	1.6508455478536
103	202	88	-0.0039854344143535
104	64	63	4.6363034405022
104	65	64	5.5102688031026
104	66	65	6.8769012693219
104	67	66	7.3494329246177
104	68	67	7.7176349138383
104	69	68	2.0505210995931
104	70	69	1.7460290305964
104	71	70	1.941098142644
104	72	71	2.4056984307087
104	73	72	1.943361911247
104	74	73	1.7978493416585
104	75	74	2.0582261191497
104	76	75	2.2819199460796
104	78	76	1.5099150706645
104	79	77	0.973
104	80	78	0.973
104	81	79	0.973
104	82	80	1.6297564945979
104	83	81	0.973
104	84	82	0.973
104	85	83	5.1229697551391
104	86	84	5.2990741322301
104	87	85	6.9066433697474
104	88	86	7.2418848999259
104	201	87	7.5653056973951
104	202	88	2.0161912499804
105	65	64	2414.8870171647
105	66	65	2414.8870171647
105	67	66	2411.9710578274
105	68	67	2407.2861185437
105	69	68	2402.246704164
105	70	69	2395.8826707528
105	71	70	2388.173933842
105	72	71	2379.048914001
105	73	72	2369.3414029197
105	74	73	2359.6474983096
105	75	74	2349.9325867636
105	76	75	2340.5674441148
105	78	76	2334.4661939782
105	79	77	2338.040883454
105	80	78	2348.6379429039
105	81	79	2358.9216176195
105	82	80	2371.8798849774
105	83	81	2385.0031817998
105	84	82	2396.3075462406
105	85	83	2405.1993711393
105	86	84	2413.1327368454
105	87	85	2419.3295146376
105	88	86	2423.369276947
105	201	87	2428.8257213949
105	202	88	2431.2977510438
106	65	64	1578.4469014332
106	66	65	1578.4469014332
106	67	66	1579.517626483
106	68	67	1581.4276614282
106	69	68	1586.5318939388
106	70	69	1592.9777830401
106	71	70	1600.785671534
106	72	71	1610.0280595208
106	73	72	1619.8604308879
106	74	73	1629.6790207736
106	75	74	1639.5188877909
106	76	75	1649.6680579232
106	78	76	1661.622398953
106	79	77	1673.8624316556
106	80	78	1682.7423865208
106	81	79	1692.0164619563
106	82	80	1695.5997576667
106	83	81	1697.3206550069
106	84	82	1698.4264234239
106	85	83	1699.2672048472
106	86	84	1700.0173575524
106	87	85	1700.6033042744
106	88	86	1700.9406040106
106	201	87	1701.6828963533
106	202	88	1708.3625312336
107	66	65	3.9644295542033
107	67	66	6.008674243849
107	68	67	8.0734599199353
107	69	68	9.9064350138462
107	70	69	11.921134236625
107	71	70	13.826884208529
107	72	71	13.788938212236
107	73	72	13.830246908267
107	74	73	13.844709769313
107	75	74	13.869042924098
107	76	75	13.86010425789
107	78	76	13.764124729915
107	79	77	13.855448419994
107	80	78	13.835607098124
107	81	79	13.83192747701
107	82	80	12.615281098634
107	83	81	10.217644385564
107	84	82	8.0987878544728
107	85	83	7.7363075944361
107	86	84	5.0120247048646
107	87	85	4.201953460753
107	88	86	6.4582771535749
107	201	87	8.4746380666523
107	202	88	10.40050763526
108	67	66	2.0442446896457
108	68	67	2.0647856760863
108	69	68	1.8329750939109
108	70	69	2.0146992227784
108	71	70	1.9057499719041
108	72	71	-0.0379459962924
108	73	72	0.041308696030173
108	74	73	0.014462861046196
108	75	74	0.02433315478498
108	76	75	-0.0089386662072499
108	78	76	-0.095979527975432
108	79	77	0.091323690079152
108	80	78	-0.019841321869754
108	81	79	-0.0036796211148609
108	82	80	-1.2166463783757
108	83	81	-2.3976367130696
108	84	82	-2.1188565310915
108	85	83	-0.36248026003676
108	86	84	-2.7242828895715
108	87	85	-0.81007124411156
108	88	86	2.2563236928219
108	201	87	2.0163609130774
108	202	88	1.9258695686073
109	67	66	4.3801502509735
109	68	67	5.5655380540077
109	69	68	6.0538343870882
109	70	69	7.6297969817585
109	71	70	8.3716996904911
109	72	71	1.8912737425963
109	73	72	2.1592349098093
109	74	73	2.0712709096471
109	75	74	2.1068152746162
109	76	75	1.9947180962521
109	78	76	1.6964923405013
109	79	77	2.329048098452
109	80	78	1.9559336225408
109	81	79	2.0094534993736
109	82	80	0.973
109	83	81	0.973
109	84	82	0.973
109	85	83	0.973
109	86	84	0.973
109	87	85	0.973
109	88	86	4.9582747004755
109	201	87	5.6932332856113
109	202	88	6.5428844797854
110	68	67	2414.8654245024
110	69	68	2414.8654245024
110	70	69	2411.8472460192
110	71	70	2407.1662319192
110	72	71	2402.0650420729
110	73	72	2395.5312373945
110	74	73	2387.612214078
110	75	74	2378.3882959194
110	76	75	2368.6692720697
110	78	76	2358.9485295651
110	79	77	2349.2389583614
110	80	78	2339.9694496329
110	81	79	2334.3053146165
110	82	80	2338.8070173085
110	83	81	2349.3638911382
110	84	82	2359.6219370497
110	85	83	2372.7893389823
110	86	84	2385.8067303017
110	87	85	2396.8869122457
110	88	86	2405.6166376187
110	201	87	2413.422130608
110	202	88	2419.5243259368
111	68	67	1578.4548301455
111	69	68	1578.4548301455
111	70	69	1579.5630895328
111	71	70	1581.5490900632
111	72	71	1586.7158926101
111	73	72	1593.3337366171
111	74	73	1601.3546162695
111	75	74	1610.6971746273
111	76	75	1620.5412068423
111	78	76	1630.3869798174
111	79	77	1640.2214378044
111	80	78	1650.4335839329
111	81	79	1662.591276899
111	82	80	1674.481130816
111	83	81	1683.3970648218
111	84	82	1692.6480275597
111	85	83	1695.7356923185
111	86	84	1697.4162952108
111	87	85	1698.4812063491
111	88	86	1699.306660179
111	201	87	1700.0447216649
111	202	88	1700.6217249837
112	69	68	4.0308093637787
112	70	69	6.036254462339
112	71	70	8.2122143258713
112	72	71	10.127203806443
112	73	72	12.146803049869
112	74	73	13.876085446596
112	75	74	13.885081575995
112	76	75	13.8417167607
112	78	76	13.785947128606
112	79	77	13.766999087699
112	80	78	13.828957613355
112	81	79	13.87147485092
112	82	80	13.889936174387
112	83	81	13.827028632092
112	84	82	13.824034691437
112	85	83	12.542955540034
112	86	84	10.020035975785
112	87	85	7.9765285292191
112	88	86	7.6851162844545
112	201	87	4.9577045210363
112	202	88	4.1596925132849
113	70	69	2.0054450985603
113	71	70	2.1759598635323
113	72	71	1.9149894805718
113	73	72	2.0195992434258
113	74	73	1.7292823967268
113	75	74	0.0089961293991649
113	76	75	-0.043364815295208
113	78	76	-0.055769632093144
113	79	77	-0.01894804090727
113	80	78	0.061958525655792
113	81	79	0.04251723756548
113	82	80	0.018461323466617
113	83	81	-0.062907542295289
113	84	82	-0.0029939406551414
113	85	83	-1.2810791514032
113	86	84	-2.5229195642484
113	87	85	-2.043507446566
113	88	86	-0.29141224476456
113	201	87	-2.7274117634182
113	202	88	-0.79801200775147
114	70	69	4.3389024901318
114	71	70	5.8638570785774
114	72	71	6.3683162986864
114	73	72	7.7736565100593
114	74	73	7.8091550625881
114	75	74	2.0572166417977
114	76	75	1.8780524687076
114	78	76	1.8317817462936
114	79	77	1.9522941302648
114	80	78	2.2279128543438
114	81	79	2.167866365872
114	82	80	2.0894053248767
114	83	81	1.8115958417836
114	84	82	2.0109459027614
114	85	83	0.973
114	86	84	0.973
114	87	85	0.973
114	88	86	0.973
114	201	87	0.973
114	202	88	0.973
115	71	70	2414.8523930582
115	72	71	2414.8523930582
115	73	72	2411.8131570384
115	74	73	2407.0968625562
115	75	74	2402.0975833733
115	76	75	2395.6644090898
115	78	76	2387.7952073155
115	79	77	2378.5551956828
115	80	78	2368.8596488204
115	81	79	2359.1485388374
115	82	80	2349.4423342251
115	83	81	2340.135291727
115	84	82	2334.3521053893
115	85	83	2338.6013491481
115	86	84	2349.1896087937
115	87	85	2359.4680292674
115	88	86	2372.6050755577
115	201	87	2385.6860502335
115	202	88	2396.8285692426
116	71	70	1578.459615224
116	72	71	1578.459615224
116	73	72	1579.5756068286
116	74	73	1581.6193516711
116	75	74	1586.6829327559
116	76	75	1593.1988520361
116	78	76	1601.1692693299
116	79	77	1610.5281281602
116	80	78	1620.3483814215
116	81	79	1630.1843979796
116	82	80	1640.0154460724
116	83	81	1650.2212802405
116	84	82	1662.3094847081
116	85	83	1674.3150414089
116	86	84	1683.2398926374
116	87	85	1692.5092296666
116	88	86	1695.7081507556
116	201	87	1697.4019315904
116	202	88	1698.4756896282
117	72	71	4.074155039531
117	73	72	6.0244607965321
117	74	73	7.9754853715327
117	75	74	10.159916237527
117	76	75	12.078826234166
117	78	76	13.829068116678
117	79	77	13.834588315932
117	80	78	13.88244878269
117	81	79	13.781845322724
117	82	80	13.876567319343
117	83	81	13.773483677458
117	84	82	13.87007487471
117	85	83	13.853708331713
117	86	84	13.889769589666
117	87	85	13.829077551663
117	88	86	12.690766837742
117	201	87	10.053984711498
117	202	88	8.0554364003422
118	73	72	1.950305757001
118	74	73	1.9510245750006
118	75	74	2.1844308659947
118	76	75	1.9189099966385
118	78	76	1.7502418825125
118	79	77	0.0055201992532243
118	80	78	0.047860466758721
118	81	79	-0.10060345996637
118	82	80	0.094721996618899
118	83	81	-0.10308364188531
118	84	82	0.096591197252273
118	85	83	-0.01636654299684
118	86	84	0.036061257952825
118	87	85	-0.060692038002889
118	88	86	-1.1383107139205
118	201	87	-2.6367821262443
118	202	88	-1.9985483111559
119	73	72	4.2524581449665
119	74	73	5.2916505999465
119	75	74	7.045662299346
119	76	75	7.4414212417855
119	78	76	7.8546456074189
119	79	77	2.0403940601367
119	80	78	2.186970536134
119	81	79	1.6825108413536
119	82	80	2.3430217757937
119	83	81	1.6736375849873
119	84	82	2.3484622168933
119	85	83	1.9692832048079
119	86	84	2.1483022681974
119	87	85	1.8191560460898
119	88	86	0.973
119	201	87	0.973
119	202	88	0.973
120	74	73	2414.8832684497
120	75	74	2414.8832684497
120	76	75	2412.0502641448
120	78	76	2407.5050109565
120	79	77	2402.6584885766
120	80	78	2396.5021918835
120	81	79	2389.0024523219
120	82	80	2380.2185659169
120	83	81	2370.5372511137
120	84	82	2360.8272124077
120	85	83	2351.1147414494
120	86	84	2341.5977191119
120	87	85	2334.7382110031
120	88	86	2336.7651831413
120	201	87	2347.4340249739
120	202	88	2357.6901773874
121	74	73	1578.448277941
121	75	74	1578.448277941
121	76	75	1579.488542337
121	78	76	1581.2059535701
121	79	77	1586.1148130577
121	80	78	1592.3502934836
121	81	79	1599.946496455
121	82	80	1608.8433632683
121	83	81	1618.6492014136
121	84	82	1628.4841329157
121	85	83	1638.3215279542
121	86	84	1648.3491455726
121	87	85	1659.9842068702
121	88	86	1672.8322269358
121	201	87	1681.6566631766
121	202	88	1690.9059183113
122	75	74	3.8082199144774
122	76	75	5.7547309331099
122	78	76	7.7202913057656
122	79	77	9.541690834555
122	80	78	11.519534956463
122	81	79	13.27554547589
122	82	80	13.822725630926
122	83	81	13.800142720481
122	84	82	13.823167601603
122	85	83	13.853781614285
122	86	84	13.880053075959
122	87	85	13.873371947163
122	88	86	13.803691802986
122	201	87	13.773665044154
122	202	88	13.782716650015
123	76	75	1.9465110186324
123	78	76	1.9655603726557
123	79	77	1.8213995287893
123	80	78	1.9778441219078
123	81	79	1.7560105194268
123	82	80	0.54718015503686
123	83	81	-0.022582910445053
123	84	82	0.023024881121236
123	85	83	0.030614012682344
123	86	84	0.026271461674479
123	87	85	-0.0066811287961901
123	88	86	-0.06968014417682
123	201	87	-0.03002675883239
123	202	88	0.0090516058611687
124	76	75	4.1048106638714
124	78	76	5.1820375304998
124	79	77	5.8389365614129
124	80	78	7.2978228189753
124	81	79	7.5847410601099
124	82	80	3.8435966177838
124	83	81	1.9433977450091
124	84	82	2.0975374508855
124	85	83	2.1261472131909
124	86	84	2.1144821753326
124	87	85	2.0035846153143
124	88	86	1.7870591186047
124	201	87	1.9161602736827
124	202	88	2.0468116903541
125	78	76	2414.8744131037
125	79	77	2414.8744131037
125	80	78	2412.0041951879
125	81	79	2407.4472631187
125	82	80	2402.6362430973
125	83	81	2396.5647572933
125	84	82	2389.1873150147
125	85	83	2380.4272138015
125	86	84	2370.7442462513
125	87	85	2361.0424930294
125	88	86	2351.3143705851
125	201	87	2341.7808254565
125	202	88	2334.7902412693
126	78	76	1578.4515295783
126	79	77	1578.4515295783
126	80	78	1579.5054586167
126	81	79	1581.2644441742
126	82	80	1586.137344664
126	83	81	1592.2869233424
126	84	82	1599.7592560146
126	85	83	1608.6320317052
126	86	84	1618.4395438563
126	87	85	1628.2660833038
126	88	86	1638.1193311419
126	201	87	1648.1147409528
126	202	88	1659.6708604163
127	79	77	3.8639698187199
127	80	78	5.8402220716055
127	81	79	7.627972078976
127	82	80	9.5366508278467
127	83	81	11.318279176078
127	84	82	13.313576860165
127	85	83	13.883047924715
127	86	84	13.838161519538
127	87	85	13.836086375362
127	88	86	13.810350540315
127	201	87	13.760817544444
127	202	88	13.879313361307
128	80	78	1.9762522528856
128	81	79	1.7877500073705
128	82	80	1.9086787488707
128	83	81	1.7816283482313
128	84	82	1.9952976840874
128	85	83	0.56947106454918
128	86	84	-0.04488640517695
128	87	85	-0.0020751441759046
128	88	86	-0.025735835046508
128	201	87	-0.049532995871269
128	202	88	0.11849581686314
129	80	78	4.1916963710062
129	81	79	4.8054695157787
129	82	80	6.0369506821873
129	83	81	6.6496919539902
129	84	82	8.3723035001656
129	85	83	3.9322506787357
129	86	84	1.8726548959943
129	87	85	2.0152211408785
129	88	86	1.9338799098883
129	201	87	1.8502689855299
129	202	88	2.4228849000861
130	81	79	2414.8673328691
130	82	80	2414.8673328691
130	83	81	2411.8635825063
130	84	82	2407.1630790912
130	85	83	2402.1578261069
130	86	84	2395.6983058939
130	87	85	2387.8521273908
130	88	86	2378.646665364
130	201	87	2368.9384544055
130	202	88	2359.2365716014
131	81	79	1578.4541294035
131	82	80	1578.4541294035
131	83	81	1579.5570908599
131	84	82	1581.5522834435
131	85	83	1586.6219151663
131	86	84	1593.1645192429
131	87	85	1601.1116171358
131	88	86	1610.4354819749
131	201	87	1620.26856222
131	202	88	1630.095232917
132	82	80	4.1704515902617
132	83	81	5.9746228737093
132	84	82	7.9945436623402
132	85	83	10.057992001626
132	86	84	12.145971590782
132	87	85	13.86064468944
132	88	86	13.85825788979
132	201	87	13.827617716186
132	202	88	13.849301690762
133	83	81	1.8041712834476
133	84	82	2.0199207886308
133	85	83	2.0634483392863
133	86	84	2.0879795891559
133	87	85	1.7146730986575
133	88	86	-0.0023867996502673
133	201	87	-0.030640173603315
133	202	88	0.021683974575717
134	83	81	4.0157150966975
134	84	82	5.4346091914951
134	85	83	6.6909423243753
134	86	84	7.9733392362879
134	87	85	7.7523510069583
134	88	86	2.0164169068993
134	201	87	1.9191761243163
134	202	88	2.0958542136401
135	84	82	2414.8387556477
135	85	83	2414.8387556477
135	86	84	2411.6714162254
135	87	85	2406.8302124324
135	88	86	2401.716179507
135	201	87	2395.2968856494
135	202	88	2387.4702738748
136	84	82	1578.4646228096
136	85	83	1578.4646228096
136	86	84	1579.6276533157
136	87	85	1581.8894315111
136	88	86	1587.0692423275
136	201	87	1593.571102649
136	202	88	1601.4983821409
137	85	83	4.2771137984432
137	86	84	6.2739829191202
137	87	85	8.1159472125452
137	88	86	9.98546164031
137	201	87	12.115084982511
137	202	88	13.875564762696
138	86	84	1.996869120677
138	87	85	1.841964293425
138	88	86	1.8695144277648
138	201	87	2.1296233422006
138	202	88	1.7604797801856
139	86	84	4.4547967856712
139	87	85	5.1536754347392
139	88	86	6.1826546934687
139	201	87	8.0766361987606
139	202	88	7.913209559506
140	87	85	2414.8452166276
140	88	86	2414.8452166276
140	201	87	2411.9102588951
140	202	88	2407.2267573988
141	87	85	1578.4622503715
141	88	86	1578.4622503715
141	201	87	1579.5399515331
141	202	88	1581.48778609
142	88	86	3.9816791077314
142	201	87	5.9391318060534
142	202	88	8.0194012818515
143	201	87	1.957452698322
143	202	88	2.0802694757981
144	201	87	4.2176186878184
144	202	88	5.5649851390904
145	202	88	2414.8623052536
146	202	88	1578.4559755176

