file 69537614 1596131619                                        
version 2
run General-0-20200730-13:43:51-24812
attr configname General
attr datetime 20200730-13:43:51
attr experiment General
attr inifile omnetpp.ini
attr iterationvars ""
attr iterationvarsf ""
attr measurement ""
attr network globcomm.simulation.Thesis
attr processid 24812
attr repetition 0
attr replication #0
attr resultdir results
attr runnumber 0
attr seedset 0
param **.debug false
param **.coreDebug false
param *.playgroundSizeX 5000m
param *.playgroundSizeY 5000m
param *.playgroundSizeZ 500m
param *.annotations.draw true
param *.manager.updateInterval 1s
param *.manager.host "\"localhost\""
param *.manager.port 9999
param *.manager.autoShutdown true
param *.manager.launchConfig "xmldoc(\"erlangen.launchd.xml\")"
param Thesis.rsu[0].mobility.x 1800
param Thesis.rsu[0].mobility.y 1000
param Thesis.rsu[0].mobility.z 3
param *.rsu[*].applType "\"globcomm.src.RSU11p\""
param *.rsu[*].appl.headerLength "80 bit"
param *.rsu[*].appl.sendBeacons false
param *.rsu[*].appl.dataOnSch false
param *.rsu[*].appl.beaconInterval 1s
param *.rsu[*].appl.beaconUserPriority 7
param *.rsu[*].appl.dataUserPriority 5
param *.connectionManager.sendDirect true
param *.connectionManager.maxInterfDist 400m
param *.connectionManager.drawMaxIntfDist true
param *.**.nic.mac1609_4.useServiceChannel false
param *.**.nic.mac1609_4.txPower 30mW
param *.**.nic.mac1609_4.bitrate 6Mbps
param *.**.nic.phy80211p.sensitivity -89dBm
param *.**.nic.phy80211p.useThermalNoise true
param *.**.nic.phy80211p.thermalNoise -110dBm
param *.**.nic.phy80211p.decider "xmldoc(\"config.xml\")"
param *.**.nic.phy80211p.analogueModels "xmldoc(\"config.xml\")"
param *.**.nic.phy80211p.usePropagationDelay true
param *.**.nic.phy80211p.antenna "xmldoc(\"antenna.xml\", \"/root/Antenna[@id='monopole']\")"
param *.node[*].applType "\"globcomm.src.MyThesisApp\""
param *.node[*].appl.headerLength "80 bit"
param *.node[*].appl.sendBeacons false
param *.node[*].appl.dataOnSch false
param *.node[*].appl.beaconInterval 1s
param *.node[*].veinsmobilityType.debug true
param *.node[*].veinsmobility.x 0
param *.node[*].veinsmobility.y 0
param *.node[*].veinsmobility.z 1.895
param *.node[*].veinsmobility.accidentCount 0
param *.node[*].veinsmobility.accidentStart 75s
param *.node[*].veinsmobility.accidentDuration 50s
param Thesis.manager.numVehicles 5

vector 0 Thesis.node[0].veinsmobility posx ETV
vector 1 Thesis.node[0].veinsmobility posy ETV
vector 2 Thesis.node[0].veinsmobility speed ETV
vector 3 Thesis.node[1].veinsmobility posx ETV
vector 4 Thesis.node[1].veinsmobility posy ETV
vector 5 Thesis.node[2].veinsmobility posx ETV
vector 6 Thesis.node[2].veinsmobility posy ETV
vector 7 Thesis.node[0].veinsmobility acceleration ETV
vector 8 Thesis.node[0].veinsmobility co2emission ETV
vector 9 Thesis.node[3].veinsmobility posx ETV
vector 10 Thesis.node[3].veinsmobility posy ETV
vector 11 Thesis.node[1].veinsmobility speed ETV
vector 12 Thesis.node[2].veinsmobility speed ETV
vector 13 Thesis.node[4].veinsmobility posx ETV
vector 14 Thesis.node[4].veinsmobility posy ETV
vector 15 Thesis.node[5].veinsmobility posx ETV
vector 16 Thesis.node[5].veinsmobility posy ETV
vector 17 Thesis.node[1].veinsmobility acceleration ETV
vector 18 Thesis.node[1].veinsmobility co2emission ETV
vector 19 Thesis.node[2].veinsmobility acceleration ETV
vector 20 Thesis.node[2].veinsmobility co2emission ETV
vector 21 Thesis.node[3].veinsmobility speed ETV
vector 22 Thesis.node[6].veinsmobility posx ETV
vector 23 Thesis.node[6].veinsmobility posy ETV
vector 24 Thesis.node[3].veinsmobility acceleration ETV
vector 25 Thesis.node[3].veinsmobility co2emission ETV
vector 26 Thesis.node[4].veinsmobility speed ETV
vector 27 Thesis.node[5].veinsmobility speed ETV
vector 28 Thesis.node[7].veinsmobility posx ETV
vector 29 Thesis.node[7].veinsmobility posy ETV
vector 30 Thesis.node[4].veinsmobility acceleration ETV
vector 31 Thesis.node[4].veinsmobility co2emission ETV
vector 32 Thesis.node[5].veinsmobility acceleration ETV
vector 33 Thesis.node[5].veinsmobility co2emission ETV
vector 34 Thesis.node[6].veinsmobility speed ETV
vector 35 Thesis.node[6].veinsmobility acceleration ETV
vector 36 Thesis.node[6].veinsmobility co2emission ETV
vector 37 Thesis.node[7].veinsmobility speed ETV
vector 38 Thesis.node[8].veinsmobility posx ETV
vector 39 Thesis.node[8].veinsmobility posy ETV
vector 40 Thesis.node[7].veinsmobility acceleration ETV
vector 41 Thesis.node[7].veinsmobility co2emission ETV
vector 42 Thesis.node[8].veinsmobility speed ETV
vector 43 Thesis.node[9].veinsmobility posx ETV
vector 44 Thesis.node[9].veinsmobility posy ETV
vector 45 Thesis.node[8].veinsmobility acceleration ETV
vector 46 Thesis.node[8].veinsmobility co2emission ETV
vector 47 Thesis.node[9].veinsmobility speed ETV
vector 48 Thesis.node[10].veinsmobility posx ETV
vector 49 Thesis.node[10].veinsmobility posy ETV
vector 50 Thesis.node[9].veinsmobility acceleration ETV
vector 51 Thesis.node[9].veinsmobility co2emission ETV
vector 52 Thesis.node[10].veinsmobility speed ETV
vector 53 Thesis.node[11].veinsmobility posx ETV
vector 54 Thesis.node[11].veinsmobility posy ETV
vector 55 Thesis.node[10].veinsmobility acceleration ETV
vector 56 Thesis.node[10].veinsmobility co2emission ETV
vector 57 Thesis.node[11].veinsmobility speed ETV
vector 58 Thesis.node[12].veinsmobility posx ETV
vector 59 Thesis.node[12].veinsmobility posy ETV
vector 60 Thesis.node[11].veinsmobility acceleration ETV
vector 61 Thesis.node[11].veinsmobility co2emission ETV
vector 62 Thesis.node[12].veinsmobility speed ETV
vector 63 Thesis.node[12].veinsmobility acceleration ETV
vector 64 Thesis.node[12].veinsmobility co2emission ETV
vector 65 Thesis.node[13].veinsmobility posx ETV
vector 66 Thesis.node[13].veinsmobility posy ETV
vector 67 Thesis.node[13].veinsmobility speed ETV
vector 68 Thesis.node[14].veinsmobility posx ETV
vector 69 Thesis.node[14].veinsmobility posy ETV
vector 70 Thesis.node[13].veinsmobility acceleration ETV
vector 71 Thesis.node[13].veinsmobility co2emission ETV
vector 72 Thesis.node[14].veinsmobility speed ETV
vector 73 Thesis.node[14].veinsmobility acceleration ETV
vector 74 Thesis.node[14].veinsmobility co2emission ETV
vector 75 Thesis.node[15].veinsmobility posx ETV
vector 76 Thesis.node[15].veinsmobility posy ETV
vector 77 Thesis.node[15].veinsmobility speed ETV
vector 78 Thesis.node[15].veinsmobility acceleration ETV
vector 79 Thesis.node[15].veinsmobility co2emission ETV
vector 80 Thesis.node[16].veinsmobility posx ETV
vector 81 Thesis.node[16].veinsmobility posy ETV
vector 82 Thesis.node[16].veinsmobility speed ETV
vector 83 Thesis.node[16].veinsmobility acceleration ETV
vector 84 Thesis.node[16].veinsmobility co2emission ETV
vector 85 Thesis.node[17].veinsmobility posx ETV
vector 86 Thesis.node[17].veinsmobility posy ETV
vector 87 Thesis.node[17].veinsmobility speed ETV
vector 88 Thesis.node[18].veinsmobility posx ETV
vector 89 Thesis.node[18].veinsmobility posy ETV
vector 90 Thesis.node[17].veinsmobility acceleration ETV
vector 91 Thesis.node[17].veinsmobility co2emission ETV
vector 92 Thesis.node[18].veinsmobility speed ETV
vector 93 Thesis.node[18].veinsmobility acceleration ETV
vector 94 Thesis.node[18].veinsmobility co2emission ETV
vector 95 Thesis.node[19].veinsmobility posx ETV
vector 96 Thesis.node[19].veinsmobility posy ETV
vector 97 Thesis.node[19].veinsmobility speed ETV
vector 98 Thesis.node[19].veinsmobility acceleration ETV
vector 99 Thesis.node[19].veinsmobility co2emission ETV
vector 100 Thesis.node[20].veinsmobility posx ETV
vector 101 Thesis.node[20].veinsmobility posy ETV
vector 102 Thesis.node[20].veinsmobility speed ETV
vector 103 Thesis.node[21].veinsmobility posx ETV
vector 104 Thesis.node[21].veinsmobility posy ETV
vector 105 Thesis.node[20].veinsmobility acceleration ETV
vector 106 Thesis.node[20].veinsmobility co2emission ETV
vector 107 Thesis.node[21].veinsmobility speed ETV
vector 108 Thesis.node[22].veinsmobility posx ETV
vector 109 Thesis.node[22].veinsmobility posy ETV
vector 110 Thesis.node[21].veinsmobility acceleration ETV
vector 111 Thesis.node[21].veinsmobility co2emission ETV
vector 112 Thesis.node[22].veinsmobility speed ETV
vector 113 Thesis.node[23].veinsmobility posx ETV
vector 114 Thesis.node[23].veinsmobility posy ETV
vector 115 Thesis.node[22].veinsmobility acceleration ETV
vector 116 Thesis.node[22].veinsmobility co2emission ETV
vector 117 Thesis.node[23].veinsmobility speed ETV
vector 118 Thesis.node[24].veinsmobility posx ETV
vector 119 Thesis.node[24].veinsmobility posy ETV
vector 120 Thesis.node[23].veinsmobility acceleration ETV
vector 121 Thesis.node[23].veinsmobility co2emission ETV
vector 122 Thesis.node[24].veinsmobility speed ETV
vector 123 Thesis.node[25].veinsmobility posx ETV
vector 124 Thesis.node[25].veinsmobility posy ETV
vector 125 Thesis.node[24].veinsmobility acceleration ETV
vector 126 Thesis.node[24].veinsmobility co2emission ETV
vector 127 Thesis.node[25].veinsmobility speed ETV
vector 128 Thesis.node[26].veinsmobility posx ETV
vector 129 Thesis.node[26].veinsmobility posy ETV
vector 130 Thesis.node[25].veinsmobility acceleration ETV
vector 131 Thesis.node[25].veinsmobility co2emission ETV
vector 132 Thesis.node[26].veinsmobility speed ETV
vector 133 Thesis.node[27].veinsmobility posx ETV
vector 134 Thesis.node[27].veinsmobility posy ETV
vector 135 Thesis.node[26].veinsmobility acceleration ETV
vector 136 Thesis.node[26].veinsmobility co2emission ETV
vector 137 Thesis.node[27].veinsmobility speed ETV
vector 138 Thesis.node[28].veinsmobility posx ETV
vector 139 Thesis.node[28].veinsmobility posy ETV
vector 140 Thesis.node[27].veinsmobility acceleration ETV
vector 141 Thesis.node[27].veinsmobility co2emission ETV
vector 142 Thesis.node[28].veinsmobility speed ETV
vector 143 Thesis.node[29].veinsmobility posx ETV
vector 144 Thesis.node[29].veinsmobility posy ETV
vector 145 Thesis.node[28].veinsmobility acceleration ETV
vector 146 Thesis.node[28].veinsmobility co2emission ETV
vector 147 Thesis.node[29].veinsmobility speed ETV
vector 148 Thesis.node[30].veinsmobility posx ETV
vector 149 Thesis.node[30].veinsmobility posy ETV
vector 150 Thesis.node[29].veinsmobility acceleration ETV
vector 151 Thesis.node[29].veinsmobility co2emission ETV
vector 152 Thesis.node[30].veinsmobility speed ETV
vector 153 Thesis.node[30].veinsmobility acceleration ETV
vector 154 Thesis.node[30].veinsmobility co2emission ETV
vector 155 Thesis.node[31].veinsmobility posx ETV
vector 156 Thesis.node[31].veinsmobility posy ETV
vector 157 Thesis.node[31].veinsmobility speed ETV
vector 158 Thesis.node[32].veinsmobility posx ETV
vector 159 Thesis.node[32].veinsmobility posy ETV
vector 160 Thesis.node[31].veinsmobility acceleration ETV
vector 161 Thesis.node[31].veinsmobility co2emission ETV
79	11008 1103 633 7859 29 75 47 0.973 12.393117471133 146.76399249837 880.86992638559
78	12111 1277 633 7859 29 75 47 -3.5573741871634 2.5047654783074 4.1187757472677 140.82132487316
77	13388 1237 632 7859 28 75 48 0 20.98933895213 380.70425491787 4716.8737021542
76	14625 1331 631 7859 27 75 49 713.325913084 803.33636530269 36899.142782714 27821854.712136
75	15956 1334 631 7859 27 75 49 2307.194239718 2620.16064488 119894.958339 293999913.35594
vector 162 Thesis.node[32].veinsmobility speed ETV
vector 163 Thesis.node[32].veinsmobility acceleration ETV
vector 164 Thesis.node[32].veinsmobility co2emission ETV
vector 165 Thesis.node[33].veinsmobility posx ETV
vector 166 Thesis.node[33].veinsmobility posy ETV
vector 167 Thesis.node[33].veinsmobility speed ETV
vector 168 Thesis.node[34].veinsmobility posx ETV
vector 169 Thesis.node[34].veinsmobility posy ETV
vector 170 Thesis.node[33].veinsmobility acceleration ETV
vector 171 Thesis.node[33].veinsmobility co2emission ETV
vector 172 Thesis.node[34].veinsmobility speed ETV
vector 173 Thesis.node[35].veinsmobility posx ETV
vector 174 Thesis.node[35].veinsmobility posy ETV
vector 175 Thesis.node[34].veinsmobility acceleration ETV
vector 176 Thesis.node[34].veinsmobility co2emission ETV
vector 177 Thesis.node[35].veinsmobility speed ETV
vector 178 Thesis.node[36].veinsmobility posx ETV
vector 179 Thesis.node[36].veinsmobility posy ETV
vector 180 Thesis.node[35].veinsmobility acceleration ETV
vector 181 Thesis.node[35].veinsmobility co2emission ETV
vector 182 Thesis.node[36].veinsmobility speed ETV
vector 183 Thesis.node[37].veinsmobility posx ETV
vector 184 Thesis.node[37].veinsmobility posy ETV
vector 185 Thesis.node[36].veinsmobility acceleration ETV
vector 186 Thesis.node[36].veinsmobility co2emission ETV
vector 187 Thesis.node[37].veinsmobility speed ETV
vector 188 Thesis.node[38].veinsmobility posx ETV
vector 189 Thesis.node[38].veinsmobility posy ETV
vector 190 Thesis.node[37].veinsmobility acceleration ETV
vector 191 Thesis.node[37].veinsmobility co2emission ETV
vector 192 Thesis.node[38].veinsmobility speed ETV
vector 193 Thesis.node[39].veinsmobility posx ETV
vector 194 Thesis.node[39].veinsmobility posy ETV
vector 195 Thesis.node[38].veinsmobility acceleration ETV
vector 196 Thesis.node[38].veinsmobility co2emission ETV
vector 197 Thesis.node[39].veinsmobility speed ETV
vector 198 Thesis.node[40].veinsmobility posx ETV
vector 199 Thesis.node[40].veinsmobility posy ETV
vector 200 Thesis.node[39].veinsmobility acceleration ETV
vector 201 Thesis.node[39].veinsmobility co2emission ETV
vector 202 Thesis.node[40].veinsmobility speed ETV
vector 203 Thesis.node[40].veinsmobility acceleration ETV
vector 204 Thesis.node[40].veinsmobility co2emission ETV
vector 205 Thesis.node[41].veinsmobility posx ETV
vector 206 Thesis.node[41].veinsmobility posy ETV
vector 207 Thesis.node[41].veinsmobility speed ETV
vector 208 Thesis.node[42].veinsmobility posx ETV
vector 209 Thesis.node[42].veinsmobility posy ETV
vector 210 Thesis.node[41].veinsmobility acceleration ETV
vector 211 Thesis.node[41].veinsmobility co2emission ETV
vector 212 Thesis.node[42].veinsmobility speed ETV
vector 213 Thesis.node[43].veinsmobility posx ETV
vector 214 Thesis.node[43].veinsmobility posy ETV
vector 215 Thesis.node[42].veinsmobility acceleration ETV
vector 216 Thesis.node[42].veinsmobility co2emission ETV
20	20271 2413 6 8687 5 101 97 0.973 8.5292612411604 268.58968773095 1228.9318155065
19	22684 2778 6 8687 5 101 97 -4.4836033242932 2.1149271267443 -0.96855501440499 245.88968533477
12	25462 2654 5 8687 4 101 98 2.7920323958171 14.556712390777 825.56078698809 8372.2012659952
6	28116 2578 4 8687 3 101 99 1361.1567647157 1630.1220557098 145270.79138278 213831177.95781
5	30694 2573 4 8687 3 101 99 2992.2477091842 3283.6550586324 309810.38796622 970348240.27835
vector 217 Thesis.node[43].veinsmobility speed ETV
vector 218 Thesis.node[43].veinsmobility acceleration ETV
vector 219 Thesis.node[43].veinsmobility co2emission ETV
146	33436 1074 7851 8689 67 103 37 1.6842630994105 17.435253521573 166.37260266441 1381.9212599872
145	34510 1140 7851 8689 67 103 37 -0.081049379385076 2.1816319866339 23.197718827718 43.70151042855
142	35650 1104 7850 8689 66 103 38 2.8097121510317 26.033890477306 534.4122660186 8476.3917643316
139	36754 1133 7849 8689 65 103 39 1329.5912650538 1818.9527366384 63065.205935738 102809943.41891
138	37887 1131 7849 8689 65 103 39 2704.3623985886 2739.3476566956 106181.48976247 289094995.36017
vector 220 Thesis.node[44].veinsmobility posx ETV
vector 221 Thesis.node[44].veinsmobility posy ETV
vector 222 Thesis.node[44].veinsmobility speed ETV
vector 223 Thesis.node[44].veinsmobility acceleration ETV
vector 224 Thesis.node[44].veinsmobility co2emission ETV
vector 225 Thesis.node[45].veinsmobility posx ETV
vector 226 Thesis.node[45].veinsmobility posy ETV
vector 227 Thesis.node[45].veinsmobility speed ETV
vector 228 Thesis.node[46].veinsmobility posx ETV
vector 229 Thesis.node[46].veinsmobility posy ETV
vector 230 Thesis.node[45].veinsmobility acceleration ETV
vector 231 Thesis.node[45].veinsmobility co2emission ETV
vector 232 Thesis.node[46].veinsmobility speed ETV
vector 233 Thesis.node[47].veinsmobility posx ETV
vector 234 Thesis.node[47].veinsmobility posy ETV
vector 235 Thesis.node[46].veinsmobility acceleration ETV
vector 236 Thesis.node[46].veinsmobility co2emission ETV
vector 237 Thesis.node[47].veinsmobility speed ETV
vector 238 Thesis.node[48].veinsmobility posx ETV
vector 239 Thesis.node[48].veinsmobility posy ETV
vector 240 Thesis.node[47].veinsmobility acceleration ETV
vector 241 Thesis.node[47].veinsmobility co2emission ETV
vector 242 Thesis.node[48].veinsmobility speed ETV
vector 243 Thesis.node[49].veinsmobility posx ETV
vector 244 Thesis.node[49].veinsmobility posy ETV
vector 245 Thesis.node[48].veinsmobility acceleration ETV
vector 246 Thesis.node[48].veinsmobility co2emission ETV
vector 247 Thesis.node[49].veinsmobility speed ETV
vector 248 Thesis.node[50].veinsmobility posx ETV
vector 249 Thesis.node[50].veinsmobility posy ETV
vector 250 Thesis.node[49].veinsmobility acceleration ETV
vector 251 Thesis.node[49].veinsmobility co2emission ETV
vector 252 Thesis.node[50].veinsmobility speed ETV
vector 253 Thesis.node[51].veinsmobility posx ETV
vector 254 Thesis.node[51].veinsmobility posy ETV
vector 255 Thesis.node[50].veinsmobility acceleration ETV
vector 256 Thesis.node[50].veinsmobility co2emission ETV
vector 257 Thesis.node[51].veinsmobility speed ETV
vector 258 Thesis.node[52].veinsmobility posx ETV
vector 259 Thesis.node[52].veinsmobility posy ETV
vector 260 Thesis.node[51].veinsmobility acceleration ETV
vector 261 Thesis.node[51].veinsmobility co2emission ETV
vector 262 Thesis.node[52].veinsmobility speed ETV
vector 263 Thesis.node[53].veinsmobility posx ETV
vector 264 Thesis.node[53].veinsmobility posy ETV
vector 265 Thesis.node[52].veinsmobility acceleration ETV
vector 266 Thesis.node[52].veinsmobility co2emission ETV
vector 267 Thesis.node[53].veinsmobility speed ETV
46	41611 2676 12 8711 11 125 115 0.973 7.5949099825744 261.28167619836 965.16109408264
45	44287 3190 12 8711 11 125 115 -3.0455580676287 2.5677263633837 1.303612056885 241.84487202848
42	47477 3057 11 8711 10 125 116 0 12.265322309309 721.46685162777 6098.1393924457
39	50534 3231 10 8711 9 125 117 884.31870651143 1113.6176973882 114850.85143205 113089718.41445
38	53765 3208 10 8711 9 125 117 2084.6525633048 2552.32 274945.19830612 649202620.84277
vector 268 Thesis.node[54].veinsmobility posx ETV
vector 269 Thesis.node[54].veinsmobility posy ETV
vector 270 Thesis.node[53].veinsmobility acceleration ETV
vector 271 Thesis.node[53].veinsmobility co2emission ETV
31	57192 3086 8 8712 7 126 120 0.973 7.1999706357605 252.98393952952 840.63250524661
30	60278 3530 8 8712 7 126 120 -4.3705263962699 2.5777688725968 -2.3674736657678 196.3781829448
26	63808 3336 7 8712 6 126 121 2.1134941050378 11.061335619183 825.18207839647 6770.2903611116
14	67144 3356 6 8712 5 126 122 1360.4317827661 1629.9054391889 178866.69370377 263033736.62669
13	70500 3349 6 8712 5 126 122 2992.2463636931 3283.9128435481 381796.18638044 1195861768.7907
vector 272 Thesis.node[54].veinsmobility speed ETV
vector 273 Thesis.node[54].veinsmobility acceleration ETV
vector 274 Thesis.node[54].veinsmobility co2emission ETV
vector 275 Thesis.node[55].veinsmobility posx ETV
vector 276 Thesis.node[55].veinsmobility posy ETV
vector 277 Thesis.node[55].veinsmobility speed ETV
vector 278 Thesis.node[56].veinsmobility posx ETV
vector 279 Thesis.node[56].veinsmobility posy ETV
vector 280 Thesis.node[55].veinsmobility acceleration ETV
vector 281 Thesis.node[55].veinsmobility co2emission ETV
41	74391 3063 10 8718 9 132 124 0.973 11.837924811011 370.81428652283 1898.871499955
40	77454 3553 10 8718 9 132 124 -4.5 2.4892129306216 5.9363887293056 326.79433728301
37	81007 3448 9 8718 8 132 125 0 20.128553509623 1123.3564171641 12283.38418664
29	84455 3485 8 8718 7 132 126 743.64697196512 1074.9122800773 112196.96365988 101474641.73444
28	87940 3477 8 8718 7 132 126 2256.9803607286 2721.2894399269 319436.33402346 813145290.39384
vector 282 Thesis.node[56].veinsmobility speed ETV
vector 283 Thesis.node[57].veinsmobility posx ETV
vector 284 Thesis.node[57].veinsmobility posy ETV
vector 285 Thesis.node[56].veinsmobility acceleration ETV
vector 286 Thesis.node[56].veinsmobility co2emission ETV
vector 287 Thesis.node[57].veinsmobility speed ETV
74	91740 2592 629 8722 25 135 111 0.973 10.33381482468 301.96042585695 1487.3136527137
73	94332 2965 629 8722 25 135 111 -4.5 2.4607519026217 2.5215603088221 280.40175143538
72	97297 2886 628 8722 24 135 112 0 16.506884282042 880.36330467303 9818.7310565324
69	100183 3153 627 8722 23 135 113 918.76235592319 1393.8682262641 120123.8376835 130247585.3613
68	103336 3155 627 8722 23 135 113 2957.0562632193 3202.3859081875 347627.05716353 1070333428.1008
vector 288 Thesis.node[57].veinsmobility acceleration ETV
vector 289 Thesis.node[57].veinsmobility co2emission ETV
vector 290 Thesis.node[58].veinsmobility posx ETV
vector 291 Thesis.node[58].veinsmobility posy ETV
vector 292 Thesis.node[59].veinsmobility posx ETV
vector 293 Thesis.node[59].veinsmobility posy ETV
vector 294 Thesis.node[58].veinsmobility speed ETV
vector 295 Thesis.node[58].veinsmobility acceleration ETV
vector 296 Thesis.node[58].veinsmobility co2emission ETV
vector 297 Thesis.node[59].veinsmobility speed ETV
vector 298 Thesis.node[60].veinsmobility posx ETV
vector 299 Thesis.node[60].veinsmobility posy ETV
vector 300 Thesis.node[59].veinsmobility acceleration ETV
vector 301 Thesis.node[59].veinsmobility co2emission ETV
vector 302 Thesis.node[60].veinsmobility speed ETV
vector 303 Thesis.node[60].veinsmobility acceleration ETV
vector 304 Thesis.node[60].veinsmobility co2emission ETV
106	107421 2449 655 33104 51 143 93 0.973 9.3506065092309 272.27793226386 1255.239316544
105	109870 2696 655 33104 51 143 93 -4.5 2.4918098194385 8.1625524780418 254.67695743522
102	112566 2636 654 33104 50 143 94 0 14.683198261043 894.26221096586 11086.253273298
101	115202 2779 653 33104 49 143 95 1228.5410689883 1672.9869345327 146043.2762758 226743534.27839
100	117981 2784 653 33104 49 143 95 2688.3768971329 3061.4595419461 264218.89569569 735960119.44567
vector 305 Thesis.node[61].veinsmobility posx ETV
vector 306 Thesis.node[61].veinsmobility posy ETV
vector 307 Thesis.node[61].veinsmobility speed ETV
vector 308 Thesis.node[62].veinsmobility posx ETV
vector 309 Thesis.node[62].veinsmobility posy ETV
vector 310 Thesis.node[61].veinsmobility acceleration ETV
vector 311 Thesis.node[61].veinsmobility co2emission ETV
vector 312 Thesis.node[62].veinsmobility speed ETV
vector 313 Thesis.node[62].veinsmobility acceleration ETV
vector 314 Thesis.node[62].veinsmobility co2emission ETV
vector 315 Thesis.node[63].veinsmobility posx ETV
vector 316 Thesis.node[63].veinsmobility posy ETV
vector 317 Thesis.node[64].veinsmobility posx ETV
vector 318 Thesis.node[64].veinsmobility posy ETV
vector 319 Thesis.node[63].veinsmobility speed ETV
64	121563 3202 341 33111 19 150 132 0.973 10.843097386672 436.18874334913 2382.7777053763
63	124765 3729 341 33111 19 150 132 -4.4910166702854 2.4308347191266 2.2570035928696 467.55247176297
62	128494 3622 158 33111 18 150 133 0 19.783047868301 1209.6634499528 14161.919655679
59	132116 3756 39 33111 17 150 134 1220.2886236836 1657.3316643693 200750.14464683 303219724.54783
58	135872 3767 39 33111 17 150 134 2707.3156559502 3279.2908308638 391168.55968782 1148278518.777
vector 320 Thesis.node[63].veinsmobility acceleration ETV
vector 321 Thesis.node[63].veinsmobility co2emission ETV
vector 322 Thesis.node[64].veinsmobility speed ETV
vector 323 Thesis.node[64].veinsmobility acceleration ETV
vector 324 Thesis.node[64].veinsmobility co2emission ETV
vector 325 Thesis.node[65].veinsmobility posx ETV
vector 326 Thesis.node[65].veinsmobility posy ETV
vector 327 Thesis.node[65].veinsmobility speed ETV
vector 328 Thesis.node[66].veinsmobility posx ETV
vector 329 Thesis.node[66].veinsmobility posy ETV
vector 330 Thesis.node[65].veinsmobility acceleration ETV
vector 331 Thesis.node[65].veinsmobility co2emission ETV
vector 332 Thesis.node[66].veinsmobility speed ETV
vector 333 Thesis.node[67].veinsmobility posx ETV
vector 334 Thesis.node[67].veinsmobility posy ETV
vector 335 Thesis.node[66].veinsmobility acceleration ETV
vector 336 Thesis.node[66].veinsmobility co2emission ETV
vector 337 Thesis.node[67].veinsmobility speed ETV
vector 338 Thesis.node[68].veinsmobility posx ETV
vector 339 Thesis.node[68].veinsmobility posy ETV
vector 340 Thesis.node[67].veinsmobility acceleration ETV
vector 341 Thesis.node[67].veinsmobility co2emission ETV
vector 342 Thesis.node[68].veinsmobility speed ETV
196	140892 1916 7875 33122 91 161 71 0.973 8.2928336899726 193.66564741129 850.41010455589
195	142808 2126 7875 33122 91 161 71 -3.2502952112175 2.5318788964022 11.695858301343 149.76549832335
192	144934 2055 7874 33122 90 161 72 0 14.299444689486 583.4848602202 6462.1774650027
189	146989 2194 7873 33122 89 161 73 919.62080260884 1113.4391883552 72411.544549287 72068146.745623
188	149183 2191 7873 33122 89 161 73 2169.4224246997 2571.0209853014 171961.61488578 406096813.17675
vector 343 Thesis.node[69].veinsmobility posx ETV
vector 344 Thesis.node[69].veinsmobility posy ETV
vector 345 Thesis.node[68].veinsmobility acceleration ETV
vector 346 Thesis.node[68].veinsmobility co2emission ETV
vector 347 Thesis.node[69].veinsmobility speed ETV
vector 348 Thesis.node[69].veinsmobility acceleration ETV
vector 349 Thesis.node[69].veinsmobility co2emission ETV
vector 350 Thesis.node[70].veinsmobility posx ETV
vector 351 Thesis.node[70].veinsmobility posy ETV
vector 352 Thesis.node[70].veinsmobility speed ETV
176	151916 2303 7867 33128 83 167 85 0.973 10.880900810422 331.24905015571 2055.0413985896
175	154219 2632 7867 33128 83 167 85 -4.4828466638015 2.3606012296863 7.5782881554592 352.32594980884
172	156851 2582 7866 33128 82 167 86 2.5533851011719 18.799394710121 885.67213307418 10433.639739724
169	159433 2611 7865 33128 81 167 87 743.62111388917 903.34868201704 71789.20320733 59492535.664277
168	162044 2602 7865 33128 81 167 87 1888.3554779856 2553.6359520496 192050.69744102 427182996.491
vector 353 Thesis.node[71].veinsmobility posx ETV
vector 354 Thesis.node[71].veinsmobility posy ETV
vector 355 Thesis.node[70].veinsmobility acceleration ETV
vector 356 Thesis.node[70].veinsmobility co2emission ETV
vector 357 Thesis.node[71].veinsmobility speed ETV
vector 358 Thesis.node[72].veinsmobility posx ETV
vector 359 Thesis.node[72].veinsmobility posy ETV
vector 360 Thesis.node[71].veinsmobility acceleration ETV
vector 361 Thesis.node[71].veinsmobility co2emission ETV
vector 362 Thesis.node[72].veinsmobility speed ETV
vector 363 Thesis.node[73].veinsmobility posx ETV
vector 364 Thesis.node[73].veinsmobility posy ETV
vector 365 Thesis.node[72].veinsmobility acceleration ETV
vector 366 Thesis.node[72].veinsmobility co2emission ETV
vector 367 Thesis.node[73].veinsmobility speed ETV
vector 368 Thesis.node[74].veinsmobility posx ETV
vector 369 Thesis.node[74].veinsmobility posy ETV
vector 370 Thesis.node[73].veinsmobility acceleration ETV
vector 371 Thesis.node[73].veinsmobility co2emission ETV
186	165678 2398 7871 33135 87 174 88 0.973 7.2537250219168 188.58611933404 604.1178184173
185	168076 2768 7871 33135 87 174 88 -3.1434158720927 2.1759250489268 3.799329974919 142.24989145713
182	170844 2645 7870 33135 86 174 89 0 11.702314377772 635.11452795105 5539.9390663083
179	173489 2710 7869 33135 85 174 90 927.56920500979 1105.7262211098 91429.206937401 93216979.327086
178	176199 2711 7869 33135 85 174 90 2549.7412972548 2840.506772869 237561.56143936 627818533.29067
vector 372 Thesis.node[74].veinsmobility speed ETV
vector 373 Thesis.node[75].veinsmobility posx ETV
vector 374 Thesis.node[75].veinsmobility posy ETV
vector 375 Thesis.node[74].veinsmobility acceleration ETV
vector 376 Thesis.node[74].veinsmobility co2emission ETV
vector 377 Thesis.node[75].veinsmobility speed ETV
216	179233 2133 8687 33177 101 177 77 0.973 11.892056184477 251.41878287382 1429.9588515685
215	181366 2437 8687 33177 101 177 77 -3.67151677887 2.53191190721 10.624325747191 217.0112861967
212	183803 2366 8528 33177 100 177 78 0 19.978635574667 753.50618265359 9007.3130706549
209	186169 2403 8239 33177 99 177 79 702.42659016393 837.18783785133 62939.408569324 50249229.429042
208	188572 2397 8239 33177 99 177 79 2377.9988050036 2946.2007423173 214306.4644043 584392883.03256
vector 378 Thesis.node[76].veinsmobility posx ETV
vector 379 Thesis.node[76].veinsmobility posy ETV
vector 380 Thesis.node[75].veinsmobility acceleration ETV
vector 381 Thesis.node[75].veinsmobility co2emission ETV
vector 382 Thesis.node[76].veinsmobility speed ETV
51	191240 4100 14 33761 13 179 167 0.973 9.8209691110417 537.72023363807 2922.8158706917
50	195340 4771 14 33761 13 179 167 -3.4474686720174 2.5778155513364 10.561351030651 540.10599522637
47	200111 4598 13 33761 12 179 168 0 16.049310768391 1460.6178003162 16519.617675205
44	204709 4777 12 33761 11 179 169 963.99212339101 1439.19 188589.3253648 213560141.6082
43	209486 4775 12 33761 11 179 169 2175.6620712662 2881.5237927181 428339.21024352 1096028504.5475
vector 383 Thesis.node[77].veinsmobility posx ETV
vector 384 Thesis.node[77].veinsmobility posy ETV
vector 385 Thesis.node[76].veinsmobility acceleration ETV
vector 386 Thesis.node[76].veinsmobility co2emission ETV
vector 387 Thesis.node[77].veinsmobility speed ETV
vector 388 Thesis.node[78].veinsmobility posx ETV
vector 389 Thesis.node[78].veinsmobility posy ETV
vector 390 Thesis.node[77].veinsmobility acceleration ETV
vector 391 Thesis.node[77].veinsmobility co2emission ETV
vector 392 Thesis.node[78].veinsmobility speed ETV
vector 393 Thesis.node[79].veinsmobility posx ETV
vector 394 Thesis.node[79].veinsmobility posy ETV
vector 395 Thesis.node[78].veinsmobility acceleration ETV
vector 396 Thesis.node[78].veinsmobility co2emission ETV
171	215022 2816 7865 34016 81 184 104 0.973 9.9715346541899 354.75390367484 1959.8748479297
170	217838 3239 7865 34016 81 184 104 -4.5 2.5337062587822 11.368583881004 351.3087164782
167	221077 3167 7864 34016 80 184 105 2.1135284113432 18.149131614294 1000.4073592851 10814.74165633
166	224244 3194 7863 34016 79 184 106 823.15419637958 1439.1770839721 115320.34585593 129433836.00317
165	227438 3194 7863 34016 79 184 106 2572.8967313727 2879.9603010782 290976.45710414 799756924.52265
vector 397 Thesis.node[79].veinsmobility speed ETV
vector 398 Thesis.node[80].veinsmobility posx ETV
vector 399 Thesis.node[80].veinsmobility posy ETV
vector 400 Thesis.node[79].veinsmobility acceleration ETV
vector 401 Thesis.node[79].veinsmobility co2emission ETV
vector 402 Thesis.node[80].veinsmobility speed ETV
vector 403 Thesis.node[81].veinsmobility posx ETV
vector 404 Thesis.node[81].veinsmobility posy ETV
vector 405 Thesis.node[80].veinsmobility acceleration ETV
vector 406 Thesis.node[80].veinsmobility co2emission ETV
vector 407 Thesis.node[81].veinsmobility speed ETV
vector 408 Thesis.node[82].veinsmobility posx ETV
vector 409 Thesis.node[82].veinsmobility posy ETV
vector 410 Thesis.node[81].veinsmobility acceleration ETV
vector 411 Thesis.node[81].veinsmobility co2emission ETV
vector 412 Thesis.node[82].veinsmobility speed ETV
vector 413 Thesis.node[83].veinsmobility posx ETV
vector 414 Thesis.node[83].veinsmobility posy ETV
vector 415 Thesis.node[82].veinsmobility acceleration ETV
vector 416 Thesis.node[82].veinsmobility co2emission ETV
vector 417 Thesis.node[83].veinsmobility speed ETV
vector 418 Thesis.node[83].veinsmobility acceleration ETV
vector 419 Thesis.node[83].veinsmobility co2emission ETV
vector 420 Thesis.node[84].veinsmobility posx ETV
vector 421 Thesis.node[84].veinsmobility posy ETV
vector 422 Thesis.node[84].veinsmobility speed ETV
61	232039 4551 39 34029 17 197 181 0.973 8.3790103456229 366.33545170465 1176.2233475477
60	236590 5141 39 34029 17 197 181 -3.0784457221496 2.5559779286973 2.614393991209 269.98109271362
57	241731 4859 18 34029 16 197 182 0 13.986373998727 1196.0496228081 10390.143092887
54	246590 5210 17 34029 15 197 183 918.73529368333 1649.5481509641 229897.97163085 303448176.71762
53	251800 5221 17 34029 15 197 183 2985.4726535193 3216.8875329122 572698.64889914 1792956159.0422
154	257021 3364 7855 34029 71 197 127 0.973 15.074776636209 342.94719863063 2105.9428465516
153	260385 3656 7855 34029 71 197 127 -4.5 2.6 5.1364716413141 273.9038588504
152	264041 3531 7854 34029 70 197 128 0 24.062500947901 952.06497568728 11224.014130791
149	267572 3879 7853 34029 69 197 129 954.59221030458 1420.8118332397 143877.19499252 162452308.02019
148	271451 3880 7853 34029 69 197 129 1831.8674281886 2415.0974327792 261810.15744816 535287730.87646
vector 423 Thesis.node[85].veinsmobility posx ETV
vector 424 Thesis.node[85].veinsmobility posy ETV
vector 425 Thesis.node[84].veinsmobility acceleration ETV
vector 426 Thesis.node[84].veinsmobility co2emission ETV
vector 427 Thesis.node[85].veinsmobility speed ETV
vector 428 Thesis.node[85].veinsmobility acceleration ETV
vector 429 Thesis.node[85].veinsmobility co2emission ETV
vector 430 Thesis.node[86].veinsmobility posx ETV
vector 431 Thesis.node[86].veinsmobility posy ETV
vector 432 Thesis.node[86].veinsmobility speed ETV
vector 433 Thesis.node[87].veinsmobility posx ETV
vector 434 Thesis.node[87].veinsmobility posy ETV
vector 435 Thesis.node[86].veinsmobility acceleration ETV
vector 436 Thesis.node[86].veinsmobility co2emission ETV
vector 437 Thesis.node[87].veinsmobility speed ETV
vector 438 Thesis.node[87].veinsmobility acceleration ETV
vector 439 Thesis.node[87].veinsmobility co2emission ETV
84	276261 4383 639 34038 35 206 172 0.973 9.8651167485648 480.58810493522 2168.0393189425
83	280644 5018 639 34038 35 206 172 -4.4027759394352 2.2901893074554 9.3694027372838 441.90603630077
82	285662 4786 638 34038 34 206 173 0 16.919508905954 1513.6940139547 16849.154947457
81	290448 5007 637 34038 33 206 174 964.39490754027 1672.9832367558 253606.97413318 380687540.93855
80	295455 4998 637 34038 33 206 174 2582.776297589 3061.4558362977 487075.01976253 1366102347.0609
vector 440 Thesis.node[88].veinsmobility posx ETV
vector 441 Thesis.node[88].veinsmobility posy ETV
121	300555 4024 694 34039 57 207 151 0.973 9.7241545952496 388.91946737464 1688.276292349
120	304579 4537 694 34039 57 207 151 -4.4291163765398 2.4070379246886 9.8687391193611 320.83314304147
117	309116 4350 661 34039 56 207 152 0 16.958168634095 1193.6623637578 12416.8927848
114	313466 4562 660 34039 55 207 153 819.59955838935 1424.3943900971 172963.00113024 204405758.80901
113	318028 4568 660 34039 55 207 153 2517.2842317703 2834.2434925182 410927.37858744 1104749061.1648
vector 442 Thesis.node[88].veinsmobility speed ETV
vector 443 Thesis.node[89].veinsmobility posx ETV
vector 444 Thesis.node[89].veinsmobility posy ETV
vector 445 Thesis.node[88].veinsmobility acceleration ETV
vector 446 Thesis.node[88].veinsmobility co2emission ETV
vector 447 Thesis.node[89].veinsmobility speed ETV
vector 448 Thesis.node[90].veinsmobility posx ETV
vector 449 Thesis.node[90].veinsmobility posy ETV
vector 450 Thesis.node[89].veinsmobility acceleration ETV
vector 451 Thesis.node[89].veinsmobility co2emission ETV
vector 452 Thesis.node[90].veinsmobility speed ETV
vector 453 Thesis.node[91].veinsmobility posx ETV
vector 454 Thesis.node[91].veinsmobility posy ETV
vector 455 Thesis.node[90].veinsmobility acceleration ETV
vector 456 Thesis.node[90].veinsmobility co2emission ETV
vector 457 Thesis.node[91].veinsmobility speed ETV
vector 458 Thesis.node[92].veinsmobility posx ETV
vector 459 Thesis.node[92].veinsmobility posy ETV
vector 460 Thesis.node[91].veinsmobility acceleration ETV
vector 461 Thesis.node[91].veinsmobility co2emission ETV
vector 462 Thesis.node[92].veinsmobility speed ETV
vector 463 Thesis.node[93].veinsmobility posx ETV
vector 464 Thesis.node[93].veinsmobility posy ETV
vector 465 Thesis.node[92].veinsmobility acceleration ETV
vector 466 Thesis.node[92].veinsmobility co2emission ETV
vector 467 Thesis.node[93].veinsmobility speed ETV
vector 468 Thesis.node[94].veinsmobility posx ETV
vector 469 Thesis.node[94].veinsmobility posy ETV
vector 470 Thesis.node[93].veinsmobility acceleration ETV
vector 471 Thesis.node[93].veinsmobility co2emission ETV
111	324222 4277 657 34498 53 219 167 0.973 11.373366763567 346.64858257993 1281.0800597822
110	328499 4587 657 34498 53 219 167 -4.5 2.3462616330284 2.3314132845967 275.26455492338
107	333086 4446 656 34498 52 219 168 0 18.172348327473 994.4613474925 9343.6118978139
104	337532 5079 655 34498 51 219 169 822.84773842302 1056.5431850751 155547.38149587 143889255.07491
103	342611 5081 655 34498 51 219 169 2153.814073531 2941.4351595862 453438.34522228 1226967536.536
vector 472 Thesis.node[94].veinsmobility speed ETV
vector 473 Thesis.node[95].veinsmobility posx ETV
vector 474 Thesis.node[95].veinsmobility posy ETV
vector 475 Thesis.node[94].veinsmobility acceleration ETV
vector 476 Thesis.node[94].veinsmobility co2emission ETV
151	347963 4124 7853 34868 69 221 153 0.973 9.6765772133819 358.10899570079 1374.3848991201
150	352087 4539 7853 34868 69 221 153 -3.3614059445163 2.5163532044087 12.1262775378 268.61362376675
147	356626 4335 7852 34868 68 221 154 0 15.070804111276 1113.572903448 11083.70304464
144	360961 4688 7851 34868 67 221 155 747.79595654634 1448.8429374051 152876.12332293 158057761.52626
143	365649 4694 7851 34868 67 221 155 2164.3774365223 2368.5683962244 354111.21717553 809863831.93764
vector 477 Thesis.node[95].veinsmobility speed ETV
vector 478 Thesis.node[96].veinsmobility posx ETV
vector 479 Thesis.node[96].veinsmobility posy ETV
vector 480 Thesis.node[95].veinsmobility acceleration ETV
vector 481 Thesis.node[95].veinsmobility co2emission ETV
vector 482 Thesis.node[96].veinsmobility speed ETV
164	370666 4074 7861 34963 77 224 148 0.973 11.849456036581 465.31475441331 2432.9266791021
163	374740 4658 7861 34963 77 224 148 -4.4618540619127 2.5190543133998 11.568684572905 425.70211247732
162	379398 4486 7860 34963 76 224 149 0 20.128475269518 1479.6215918848 18016.681327084
159	383884 4548 7859 34963 75 224 150 905.57950057829 1644.737832445 180641.88379284 228899335.15133
158	388432 4544 7859 34963 75 224 150 2170.2937633838 2765.5565007983 388849.27089049 1013619295.7403
vector 483 Thesis.node[97].veinsmobility posx ETV
vector 484 Thesis.node[97].veinsmobility posy ETV
vector 485 Thesis.node[96].veinsmobility acceleration ETV
vector 486 Thesis.node[96].veinsmobility co2emission ETV
vector 487 Thesis.node[97].veinsmobility speed ETV
vector 488 Thesis.node[98].veinsmobility posx ETV
vector 489 Thesis.node[98].veinsmobility posy ETV
vector 490 Thesis.node[97].veinsmobility acceleration ETV
vector 491 Thesis.node[97].veinsmobility co2emission ETV
vector 492 Thesis.node[98].veinsmobility speed ETV
vector 493 Thesis.node[99].veinsmobility posx ETV
vector 494 Thesis.node[99].veinsmobility posy ETV
vector 495 Thesis.node[98].veinsmobility acceleration ETV
vector 496 Thesis.node[98].veinsmobility co2emission ETV
99	393737 4584 651 34968 47 229 183 0.973 10.049420975484 489.28846866533 2268.6215110905
98	398321 5180 651 34968 47 229 183 -4.5 2.4256611652148 11.121189073823 458.78574790198
97	403501 4976 650 34968 46 229 184 0 16.263037646314 1381.8697839352 15236.122817122
96	408477 5365 649 34968 45 229 185 1081.8746031387 1737.7893829891 259928.51695919 372242269.55623
95	413842 5368 649 34968 45 229 185 1966.2128999956 2426.989840085 398196.1773034 860348089.48782
vector 497 Thesis.node[99].veinsmobility speed ETV
vector 498 Thesis.node[100].veinsmobility posx ETV
vector 499 Thesis.node[100].veinsmobility posy ETV
vector 500 Thesis.node[99].veinsmobility acceleration ETV
vector 501 Thesis.node[99].veinsmobility co2emission ETV
vector 502 Thesis.node[100].veinsmobility speed ETV
vector 503 Thesis.node[101].veinsmobility posx ETV
vector 504 Thesis.node[101].veinsmobility posy ETV
vector 505 Thesis.node[100].veinsmobility acceleration ETV
vector 506 Thesis.node[100].veinsmobility co2emission ETV
301	419759 2595 12649 34972 140 233 94 0.973 9.0823886488125 283.23885286929 1410.3750588884
300	422354 2886 12649 34972 140 233 94 -4.4411660009937 2.6 11.738122427572 249.64866555374
297	425240 2829 9691 34972 139 233 95 0 15.184599748866 856.14942565213 10655.297299709
293	428069 2966 8959 34972 138 233 96 934.52415756544 1211.4237199784 97268.269992048 99359333.564208
292	431035 2966 8959 34972 138 233 96 2266.1411591439 2758.6732543819 249311.33554877 650193856.03259
vector 507 Thesis.node[101].veinsmobility speed ETV
vector 508 Thesis.node[101].veinsmobility acceleration ETV
vector 509 Thesis.node[101].veinsmobility co2emission ETV
18	434173 5446 6 34974 5 235 231 0.973 9.7228968528153 513.81480995549 2016.4516992242
17	439619 6077 6 34974 5 235 231 -4.4649057562416 2.5306494620885 10.838020926408 400.06831929014
11	445696 5838 5 34974 4 235 232 0 15.63557043041 1403.2388663426 14745.632562448
4	451534 6410 4 34974 3 235 233 1204.87610654 1619.9660907902 351051.88066792 531769551.97523
3	457944 6419 4 34974 3 235 233 2064.5036792416 2878.1415684067 573951.00137858 1427133916.887
vector 510 Thesis.node[102].veinsmobility posx ETV
vector 511 Thesis.node[102].veinsmobility posy ETV
419	464467 1241 34026 34976 194 237 44 0.973 9.7691305600205 153.7250338586 828.93195384788
418	465708 1402 34026 34976 194 237 44 -3.2678183252515 2.5799709496484 12.320871141649 146.11220686745
417	467110 1378 34025 34976 193 237 45 1.0308134227984 15.286910679725 409.61173268484 4538.2523620735
414	468488 1421 34024 34976 192 237 46 1487.7144257372 1660.6005433881 73393.651665159 117260417.43225
413	469909 1421 34024 34976 192 237 46 2825.5876090041 3074.9767749036 138574.70659526 417714937.49747
vector 512 Thesis.node[102].veinsmobility speed ETV
vector 513 Thesis.node[103].veinsmobility posx ETV
vector 514 Thesis.node[103].veinsmobility posy ETV
vector 515 Thesis.node[102].veinsmobility acceleration ETV
vector 516 Thesis.node[102].veinsmobility co2emission ETV
vector 517 Thesis.node[103].veinsmobility speed ETV
vector 518 Thesis.node[103].veinsmobility acceleration ETV
vector 519 Thesis.node[103].veinsmobility co2emission ETV
126	471778 5029 1254 34981 59 242 184 0.973 10.251907550727 528.12394918954 2618.3545748362
125	476807 5643 1254 34981 59 242 184 -4.5 2.3981909908235 13.262889564541 476.34308905669
122	482450 5457 909 34981 58 242 185 0 16.431600307215 1482.0764839562 16183.655576487
119	487907 5617 694 34981 57 242 186 1272.5136803345 1752.1408876189 270957.79031683 398118949.83129
118	493524 5617 694 34981 57 242 186 2344.9470994693 2717.8815850286 478659.87653108 1234546833.3914
vector 520 Thesis.node[104].veinsmobility posx ETV
vector 521 Thesis.node[104].veinsmobility posy ETV
vector 522 Thesis.node[104].veinsmobility speed ETV
vector 523 Thesis.node[105].veinsmobility posx ETV
vector 524 Thesis.node[105].veinsmobility posy ETV
vector 525 Thesis.node[104].veinsmobility acceleration ETV
vector 526 Thesis.node[104].veinsmobility co2emission ETV
vector 527 Thesis.node[105].veinsmobility speed ETV
vector 528 Thesis.node[105].veinsmobility acceleration ETV
vector 529 Thesis.node[105].veinsmobility co2emission ETV
vector 530 Thesis.node[106].veinsmobility posx ETV
vector 531 Thesis.node[106].veinsmobility posy ETV
vector 532 Thesis.node[106].veinsmobility speed ETV
vector 533 Thesis.node[107].veinsmobility posx ETV
vector 534 Thesis.node[107].veinsmobility posy ETV
vector 535 Thesis.node[106].veinsmobility acceleration ETV
vector 536 Thesis.node[106].veinsmobility co2emission ETV
vector 537 Thesis.node[107].veinsmobility speed ETV
vector 538 Thesis.node[108].veinsmobility posx ETV
vector 539 Thesis.node[108].veinsmobility posy ETV
vector 540 Thesis.node[107].veinsmobility acceleration ETV
vector 541 Thesis.node[107].veinsmobility co2emission ETV
vector 542 Thesis.node[108].veinsmobility speed ETV
131	500402 5421 4998 34996 61 256 196 0.973 13.350078433828 560.23839975639 2821.9507376643
130	505823 6200 4998 34996 61 256 196 -4.461143437305 2.487206367246 8.6243463204716 473.63664172766
127	512023 5922 2382 34996 60 256 197 0 20.638298159769 1862.4249594127 21018.144309717
124	517945 5998 1254 34996 59 256 198 934.5370804343 1633.1953797492 233915.54888025 284907843.09415
123	523943 5991 1254 34996 59 256 198 1966.145116247 2764.8313040799 483717.47095641 1198337479.5449
vector 543 Thesis.node[109].veinsmobility posx ETV
vector 544 Thesis.node[109].veinsmobility posy ETV
vector 545 Thesis.node[108].veinsmobility acceleration ETV
vector 546 Thesis.node[108].veinsmobility co2emission ETV
324	530157 3082 33113 35047 152 257 106 0.973 6.8932627969579 252.78952344978 874.04890425222
323	533239 3447 33113 35047 152 257 106 -3.0513000116545 2.5264778819354 7.9660446201029 179.5843701179
322	536686 3307 33112 35047 151 257 107 2.9403928545876 11.274080351627 915.53457930433 8584.8471481175
318	539993 3343 33111 35047 150 257 108 929.48938151467 1469.6729083109 121551.55730281 139585508.67491
317	543336 3336 33111 35047 150 257 108 2704.6914690221 2878.0595497752 301356.08502595 841253236.2688
vector 547 Thesis.node[109].veinsmobility speed ETV
vector 548 Thesis.node[109].veinsmobility acceleration ETV
vector 549 Thesis.node[109].veinsmobility co2emission ETV
91	546844 5309 645 42702 41 260 220 0.973 9.4278816305553 490.82887809203 1970.6807458951
90	552153 5749 645 42702 41 260 220 -4.0831652413681 2.5740433791539 2.6568387961248 398.8244215357
87	557902 5546 644 42702 40 260 221 0 16.728187429044 1353.1795189727 13882.740843877
86	563448 6455 643 42702 39 260 222 918.72829827162 1646.3286061061 302711.67822554 430940679.61245
85	569903 6341 643 42702 39 260 222 2890.7730287031 3220.8388866058 694238.62285287 2172883495.2541
vector 550 Thesis.node[110].veinsmobility posx ETV
vector 551 Thesis.node[110].veinsmobility posy ETV
vector 552 Thesis.node[110].veinsmobility speed ETV
vector 553 Thesis.node[111].veinsmobility posx ETV
vector 554 Thesis.node[111].veinsmobility posy ETV
vector 555 Thesis.node[110].veinsmobility acceleration ETV
vector 556 Thesis.node[110].veinsmobility co2emission ETV
vector 557 Thesis.node[111].veinsmobility speed ETV
vector 558 Thesis.node[112].veinsmobility posx ETV
vector 559 Thesis.node[112].veinsmobility posy ETV
vector 560 Thesis.node[111].veinsmobility acceleration ETV
vector 561 Thesis.node[111].veinsmobility co2emission ETV
286	576900 3729 8720 82787 134 267 134 0.973 8.3186944169224 349.32123455396 1417.1811575248
285	580629 4262 8720 82787 134 267 134 -4.4335018618525 2.5046963271033 7.5257582511207 295.40241446357
282	584891 4089 8719 82787 133 267 135 0 13.225452626826 1197.9431269227 13184.578272015
279	588980 4189 8718 82787 132 267 136 819.59136658883 996.19890739607 125055.62601631 115452533.48853
278	593169 4185 8718 82787 132 267 136 1888.4976651228 2833.9097231554 324498.45840129 787309514.62249
vector 562 Thesis.node[112].veinsmobility speed ETV
vector 563 Thesis.node[113].veinsmobility posx ETV
vector 564 Thesis.node[113].veinsmobility posy ETV
vector 565 Thesis.node[112].veinsmobility acceleration ETV
vector 566 Thesis.node[112].veinsmobility co2emission ETV
vector 567 Thesis.node[113].veinsmobility speed ETV
vector 568 Thesis.node[114].veinsmobility posx ETV
vector 569 Thesis.node[114].veinsmobility posy ETV
vector 570 Thesis.node[113].veinsmobility acceleration ETV
vector 571 Thesis.node[113].veinsmobility co2emission ETV
vector 572 Thesis.node[114].veinsmobility speed ETV
vector 573 Thesis.node[114].veinsmobility acceleration ETV
vector 574 Thesis.node[114].veinsmobility co2emission ETV
vector 575 Thesis.node[115].veinsmobility posx ETV
vector 576 Thesis.node[115].veinsmobility posy ETV
vector 577 Thesis.node[115].veinsmobility speed ETV
vector 578 Thesis.node[116].veinsmobility posx ETV
vector 579 Thesis.node[116].veinsmobility posy ETV
vector 580 Thesis.node[117].veinsmobility posx ETV
vector 581 Thesis.node[117].veinsmobility posy ETV
vector 582 Thesis.node[115].veinsmobility acceleration ETV
vector 583 Thesis.node[115].veinsmobility co2emission ETV
vector 584 Thesis.node[116].veinsmobility speed ETV
vector 585 Thesis.node[117].veinsmobility speed ETV
vector 586 Thesis.node[118].veinsmobility posx ETV
vector 587 Thesis.node[118].veinsmobility posy ETV
vector 588 Thesis.node[116].veinsmobility acceleration ETV
vector 589 Thesis.node[116].veinsmobility co2emission ETV
vector 590 Thesis.node[117].veinsmobility acceleration ETV
vector 591 Thesis.node[117].veinsmobility co2emission ETV
461	599010 1783 34048 82799 215 279 65 0.973 12.43001811454 182.66095517865 1030.7106328462
460	600793 1881 34048 82799 215 279 65 -4.5 2.220854038705 6.412359484148 135.6179354795
457	602674 1858 34046 82799 214 279 66 0 22.198969409722 534.62479895694 6409.0564739733
454	604532 2070 34045 82799 213 279 67 926.95510739857 1097.4131483996 65332.909056411 63816633.75329
453	606602 2073 34045 82799 213 279 67 2115.282533981 2567.2868257757 157897.8436378 373154360.29809
vector 592 Thesis.node[118].veinsmobility speed ETV
vector 593 Thesis.node[119].veinsmobility posx ETV
vector 594 Thesis.node[119].veinsmobility posy ETV
vector 595 Thesis.node[118].veinsmobility acceleration ETV
vector 596 Thesis.node[118].veinsmobility co2emission ETV
211	608951 5021 8239 82801 99 281 183 0.973 11.835080186926 439.70637657508 1894.8103255921
210	613972 5524 8239 82801 99 281 183 -3.663963830818 2.4107844465901 9.8408253367803 341.39711155721
207	619496 5285 8057 82801 98 281 184 0 19.56032111484 1330.8614360939 13519.297536251
206	624781 5679 7902 82801 97 281 185 546.14967058426 894.01428061698 143167.03530801 111915407.73765
205	630460 5623 7902 82801 97 281 185 1989.9562519271 2712.4128408145 460140.34483403 1153857770.0851
vector 597 Thesis.node[119].veinsmobility speed ETV
vector 598 Thesis.node[119].veinsmobility acceleration ETV
vector 599 Thesis.node[119].veinsmobility co2emission ETV
vector 600 Thesis.node[120].veinsmobility posx ETV
vector 601 Thesis.node[120].veinsmobility posy ETV
vector 602 Thesis.node[120].veinsmobility speed ETV
vector 603 Thesis.node[121].veinsmobility posx ETV
vector 604 Thesis.node[121].veinsmobility posy ETV
vector 605 Thesis.node[120].veinsmobility acceleration ETV
vector 606 Thesis.node[120].veinsmobility co2emission ETV
201	636635 5242 7877 82807 93 287 195 0.973 10.984057617483 525.33255465594 2452.4371861128
200	641877 5925 7877 82807 93 287 195 -4.0958700579795 2.4055746094906 2.7471602429889 473.15884382952
197	647802 5685 7876 82807 92 287 196 0 17.953460562833 1617.7114174018 18650.906039925
194	653487 6030 7875 82807 91 287 197 742.80273503714 1641.4746573236 242921.96000972 325189657.67267
193	659517 6005 7875 82807 91 287 197 2513.7732407445 2739.881366845 524742.26318222 1398575610.0706
vector 607 Thesis.node[121].veinsmobility speed ETV
71	665575 6113 627 82808 23 288 266 0.973 10.954953486134 680.0926677382 3519.3982498203
70	671688 6721 627 82808 23 288 266 -3.5775881146798 2.5029226099723 13.766854816993 595.09861259784
67	678409 6544 626 82808 22 288 267 0 18.909957091463 1555.4621043172 18381.94381928
66	684953 7794 625 82808 21 288 268 763.07772050389 1688.7567062625 396071.65196162 608732635.60145
65	692747 7784 625 82808 21 288 268 2688.1695779302 3305.9003886771 796287.05578703 2381754254.6725
vector 608 Thesis.node[122].veinsmobility posx ETV
vector 609 Thesis.node[122].veinsmobility posy ETV
vector 610 Thesis.node[121].veinsmobility acceleration ETV
vector 611 Thesis.node[121].veinsmobility co2emission ETV
vector 612 Thesis.node[122].veinsmobility speed ETV
vector 613 Thesis.node[123].veinsmobility posx ETV
vector 614 Thesis.node[123].veinsmobility posy ETV
vector 615 Thesis.node[122].veinsmobility acceleration ETV
vector 616 Thesis.node[122].veinsmobility co2emission ETV
vector 617 Thesis.node[123].veinsmobility speed ETV
vector 618 Thesis.node[123].veinsmobility acceleration ETV
vector 619 Thesis.node[123].veinsmobility co2emission ETV
vector 620 Thesis.node[124].veinsmobility posx ETV
vector 621 Thesis.node[124].veinsmobility posy ETV
vector 622 Thesis.node[124].veinsmobility speed ETV
vector 623 Thesis.node[125].veinsmobility posx ETV
vector 624 Thesis.node[125].veinsmobility posy ETV
vector 625 Thesis.node[124].veinsmobility acceleration ETV
vector 626 Thesis.node[124].veinsmobility co2emission ETV
vector 627 Thesis.node[125].veinsmobility speed ETV
136	701635 6229 7847 83220 63 298 236 0.973 8.9692959013255 624.5630890398 2796.3957051281
135	707864 7024 7847 83220 63 298 236 -3.4247670400958 2.5390968615771 5.454466417768 581.0741009347
132	714888 6769 7689 83220 62 298 237 0 16.214853433263 1766.394186327 18664.658114171
129	721657 7230 4998 83220 61 298 238 1169.3185379762 1761.6427937743 366300.66164167 569611490.33411
128	728887 7231 4998 83220 61 298 238 2517.2803839122 3060.7222404679 659263.82346183 1830886683.1733
vector 628 Thesis.node[126].veinsmobility posx ETV
vector 629 Thesis.node[126].veinsmobility posy ETV
vector 630 Thesis.node[125].veinsmobility acceleration ETV
vector 631 Thesis.node[125].veinsmobility co2emission ETV
481	736341 2153 34962 83686 223 299 77 0.973 7.9532812032804 195.95468753654 762.41184951167
480	738494 2453 34962 83686 223 299 77 -4.4296375048769 2.1962254844201 2.6539662767513 175.04272111005
477	740947 2368 34961 83686 222 299 78 0 12.541836884382 626.5710922766 6171.1558850375
474	743315 2446 34868 83686 221 299 79 932.31725780056 1297.0828040867 86655.414810844 96667837.896226
473	745761 2442 34868 83686 221 299 79 2570.4326746036 2785.7445819725 215926.85292371 590394904.00621
vector 632 Thesis.node[126].veinsmobility speed ETV
vector 633 Thesis.node[127].veinsmobility posx ETV
vector 634 Thesis.node[127].veinsmobility posy ETV
vector 635 Thesis.node[126].veinsmobility acceleration ETV
vector 636 Thesis.node[126].veinsmobility co2emission ETV
vector 637 Thesis.node[127].veinsmobility speed ETV
356	748532 3753 33129 84009 168 302 135 0.973 10.466466540503 305.20856447548 1153.0876001287
355	752285 4169 33129 84009 168 302 135 -4.5 2.5277859327965 3.9327431118095 250.30428915937
352	756454 4001 33128 84009 167 302 136 0 16.519257586134 927.24438986959 8362.6669272298
351	760455 4231 33127 84009 166 302 137 822.76378659855 1237.1118630417 133535.85472763 133065141.24191
350	764686 4229 33127 84009 166 302 137 2570.3453086966 2878.1965147565 368561.02023643 992576816.17362
56	768915 6624 17 84009 15 302 288 0.973 8.0222154157299 506.7531211503 1549.209763534
55	775539 6685 17 84009 15 302 288 -4.4523457204935 2.4724288694537 0.80394732584771 267.72501872265
52	782224 6423 15 84009 14 302 289 0 13.128593293063 1471.8368567971 16950.25588869
49	788647 8413 14 84009 13 302 290 623.4982910006 995.19290102123 264017.62960336 241843395.03956
48	797060 8363 14 84009 13 302 290 1926.1115052376 2964.0465629103 765335.8004279 2063879584.2979
vector 638 Thesis.node[128].veinsmobility posx ETV
vector 639 Thesis.node[128].veinsmobility posy ETV
vector 640 Thesis.node[127].veinsmobility acceleration ETV
vector 641 Thesis.node[127].veinsmobility co2emission ETV
vector 642 Thesis.node[128].veinsmobility speed ETV
281	805699 4854 8718 84011 132 304 173 0.973 17.414117293309 578.60883705374 3584.9270887102
280	810553 5502 8718 84011 132 304 173 -4.5 2.4154483590159 15.325719506061 491.57224689934
277	816055 5301 8717 84011 131 304 174 0 27.917420801151 1732.3735275987 21824.979190913
276	821356 5374 8716 84011 130 304 175 963.90137768058 1672.9698718638 247230.84771852 361369300.32074
275	826730 5361 8716 84011 130 304 175 2549.7577522109 3061.5434523932 485401.02808566 1349895387.403
vector 643 Thesis.node[129].veinsmobility posx ETV
vector 644 Thesis.node[129].veinsmobility posy ETV
vector 645 Thesis.node[128].veinsmobility acceleration ETV
vector 646 Thesis.node[128].veinsmobility co2emission ETV
vector 647 Thesis.node[129].veinsmobility speed ETV
429	832367 2839 34032 84013 200 306 107 0.973 15.013792411302 276.120394702 1506.6176904076
428	835206 3091 34032 84013 200 306 107 -3.70963016747 2.4551241218136 7.7638138940569 172.91984360263
427	838297 2990 34031 84013 199 306 108 0 23.953659821759 880.84001054216 11148.274771112
424	841287 3375 34030 84013 198 306 109 1096.8308823855 1657.5177665026 165425.84666096 254104705.72391
423	844662 3346 34030 84013 198 306 109 2707.2050727032 2983.2578515625 310127.0759276 883441250.17351
vector 648 Thesis.node[129].veinsmobility acceleration ETV
vector 649 Thesis.node[129].veinsmobility co2emission ETV
8	848127 6671 4 84014 3 307 305 0.973 8.8159572041962 608.28615173272 2267.7948882953
7	854798 6951 4 84014 3 307 305 -4.2374424591243 2.3471006730396 11.572074544021 438.87305066364
2	861749 6708 3 84014 2 307 306 0 15.500420758181 1411.1349689195 14968.739395523
1	868457 8562 2 84014 1 307 307 1205.145442287 1619.9616743894 465308.14801961 708132158.84417
0	877019 8552 2 84014 1 307 307 2060.7200768509 2878.022650274 738830.96788985 1794397007.3465
341	885571 3990 33121 84014 160 307 148 0.973 10.492441113023 356.45154093995 1457.0309001169
340	889561 4449 33121 84014 160 307 148 -3.1383334565804 2.4496337799588 8.4178366992567 293.39216742425
337	894010 4277 33120 84014 159 307 149 0 16.51125178654 1030.5219211449 10184.83233382
334	898287 4632 33119 84014 158 307 150 677.43662409274 1424.3863031394 155407.17105194 171694656.77991
333	902919 4637 33119 84014 158 307 150 2517.2965153213 2739.5408500065 403189.0895106 1084138219.7644
vector 650 Thesis.node[130].veinsmobility posx ETV
vector 651 Thesis.node[130].veinsmobility posy ETV
vector 652 Thesis.node[130].veinsmobility speed ETV
191	907713 6139 7873 84016 89 309 221 0.973 12.951814088899 599.99887414888 2895.9126562422
190	913852 7033 7873 84016 89 309 221 -4.4676351170964 2.5446289240033 5.7026018203945 492.68741250407
187	920885 6740 7872 84016 88 309 222 0 22.241454661539 1858.6912780132 21598.148052673
184	927625 6823 7871 84016 87 309 223 934.54527809347 1457.9971429603 255431.00622639 298800201.78644
183	934448 6813 7871 84016 87 309 223 1773.9924559562 2864.0126074204 547440.53559418 1379731722.9782
451	941261 2781 34043 84016 211 309 99 0.973 16.917445899935 335.43291471497 2243.7733973303
450	944042 3161 34043 84016 211 309 99 -4.5 2.2907403704827 8.7868845331364 285.57857006998
447	947203 3078 34042 84016 210 309 100 0 26.493322621162 966.10963291553 11938.848844088
444	950281 3121 34041 84016 209 309 101 1133.0317187244 1657.5645249351 141726.13161405 203044633.73543
443	953402 3125 34041 84016 209 309 101 2626.8944955274 2925.6086226372 276343.27544325 756656000.83843
311	956527 4521 33107 84016 146 309 164 0.973 10.760856579129 461.62283677567 2242.5264349755
310	961048 5200 33107 84016 146 309 164 -4.5 2.5903265285771 5.202897710723 418.60371632821
307	966248 5043 33106 84016 145 309 165 0 16.920988375235 1364.993470995 15256.438960542
306	971291 5135 33105 84016 144 309 166 1276.0291299188 1672.9788085892 247338.69253154 372188434.84608
305	976426 5130 33105 84016 144 309 166 2340.9334325999 3060.5793486115 443895.71961621 1194536035.642
vector 653 Thesis.node[131].veinsmobility posx ETV
vector 654 Thesis.node[131].veinsmobility posy ETV
vector 655 Thesis.node[130].veinsmobility acceleration ETV
vector 656 Thesis.node[130].veinsmobility co2emission ETV
116	981779 7021 660 84017 55 310 256 0.973 16.935513546411 819.06710708397 4933.9769621144
115	988800 7960 660 84017 55 310 256 -4.5 2.5151198728802 6.1399446027426 688.7822928223
112	996760 7682 658 84017 54 310 257 0 27.91340575476 2583.4325103416 33784.402872646
109	1004442 7825 657 84017 53 310 258 934.54207798506 1657.4280215266 320606.64102187 416306746.59364
108	1012267 7823 657 84017 53 310 258 1776.0127825151 3189.0924648266 657865.03253552 1731568188.0721
439	1020090 2879 34038 84017 206 310 105 0.973 15.764335250388 392.56538730412 2622.3143467658
438	1022969 3303 34038 84017 206 310 105 -4.490998089083 2.4575929020592 8.2220120236942 389.40468679323
437	1026272 3219 34037 84017 205 310 106 0 25.795415643724 1106.0687486988 14715.991594013
434	1029491 3289 34036 84017 204 310 107 950.61601442328 1657.5576795951 141606.57000958 196104071.76796
433	1032780 3285 34036 84017 204 310 107 2707.2008319446 2963.6000047826 299584.17060495 839336742.28646
vector 657 Thesis.node[131].veinsmobility speed ETV
vector 658 Thesis.node[132].veinsmobility posx ETV
vector 659 Thesis.node[132].veinsmobility posy ETV
vector 660 Thesis.node[131].veinsmobility acceleration ETV
vector 661 Thesis.node[131].veinsmobility co2emission ETV
94	1036341 7427 647 84019 43 312 270 0.973 8.9908591505752 628.36584655075 2541.8030608246
93	1043768 8371 647 84019 43 312 270 -4.2009889247123 2.5395277273236 10.997129953364 467.97345966446
92	1052139 7927 646 84019 42 312 271 0.44423408345075 14.413892013591 1793.5017299153 18240.484495818
89	1060066 7944 645 84019 41 312 272 1236.8126178335 1672.9843228427 394395.69254255 575995224.72155
88	1068010 7932 645 84019 41 312 272 2344.8965766667 3089.8387387114 766782.20006403 2180570570.7723
vector 662 Thesis.node[132].veinsmobility speed ETV
vector 663 Thesis.node[133].veinsmobility posx ETV
vector 664 Thesis.node[133].veinsmobility posy ETV
vector 665 Thesis.node[132].veinsmobility acceleration ETV
vector 666 Thesis.node[132].veinsmobility co2emission ETV
vector 667 Thesis.node[133].veinsmobility speed ETV
476	1076271 2807 34868 84022 221 315 95 0.973 9.0583664400837 214.58708745043 843.86355143701
475	1079078 3083 34868 84022 221 315 95 -4.5 2.476808196546 5.6322035191814 147.16978475926
472	1082161 2966 34683 84022 220 315 96 3.0036336103132 15.634842791389 642.18712485171 5982.1727016587
469	1085127 3000 34498 84022 219 315 97 1144.522004128 1335.7759213873 121517.23306753 152456717.59347
468	1088127 2996 34498 84022 219 315 97 1965.8625555912 2361.3105847236 213833.8552518 472933334.97755
vector 668 Thesis.node[134].veinsmobility posx ETV
vector 669 Thesis.node[134].veinsmobility posy ETV
vector 670 Thesis.node[133].veinsmobility acceleration ETV
vector 671 Thesis.node[133].veinsmobility co2emission ETV
416	1091346 3657 34024 84023 192 316 125 0.973 9.051570399476 277.53036738749 913.05143635618
415	1095003 4052 34024 84023 192 316 125 -3.7001163530736 2.4672746226541 4.8380553370976 154.71188067893
412	1099055 3838 34023 84023 191 316 126 0 15.261683215861 1143.1413662586 11992.540624274
409	1102893 3929 34022 84023 190 316 127 964.41635906872 1616.0860080344 164751.48221433 221667743.84285
408	1106822 3917 34022 84023 190 316 127 2515.34786742 2740.2470165135 336493.37428362 892241515.6088
486	1110739 2511 34964 84023 225 316 92 0.973 9.4850206889508 285.22192609898 1412.0566850556
485	1113250 2906 34964 84023 225 316 92 -4.5 2.5766303039202 2.8517143103061 300.30877434652
482	1116156 2849 34963 84023 224 316 93 0 14.58917241593 811.21163541717 8769.4185582193
479	1119005 2901 34962 84023 223 316 94 919.5716552607 1435.9697480278 110602.897282 133269883.21717
478	1121906 2902 34962 84023 223 316 94 2567.7572912362 2897.0343979911 259329.70685016 716102558.46291
406	1124808 3560 34020 84023 188 316 129 0.973 7.7182702505129 284.16455380566 998.22577872446
405	1128368 3984 34020 84023 188 316 129 -4.5 2.4226959550031 9.3421480949442 230.00014677774
402	1132352 3846 34019 84023 187 316 130 0 12.68729975942 835.19623229856 6950.4736005103
399	1136198 4047 34018 84023 186 316 131 1490.4360477202 1714.9695607296 206703.54132508 326523582.40523
398	1140245 4046 34018 84023 186 316 131 2230.5681591266 2690.5950751561 315499.12446159 761979134.70571
vector 672 Thesis.node[134].veinsmobility speed ETV
vector 673 Thesis.node[135].veinsmobility posx ETV
vector 674 Thesis.node[135].veinsmobility posy ETV
vector 675 Thesis.node[134].veinsmobility acceleration ETV
vector 676 Thesis.node[134].veinsmobility co2emission ETV
vector 677 Thesis.node[135].veinsmobility speed ETV
161	1144620 6393 7859 84026 75 319 245 0.973 9.6054545879353 551.4369971523 2207.1075862545
160	1151013 6990 7859 84026 75 319 245 -4.5 2.4742067189427 9.1748644109911 461.22782245018
157	1158003 6699 7858 84026 74 319 246 0 14.169552258674 1578.9100827048 16657.069011198
156	1164702 7534 7857 84026 73 319 247 1487.205172477 1672.9844152141 395098.2871447 632846306.27831
155	1172236 7533 7857 84026 73 319 247 1936.1835396455 3060.9669410482 636456.86120536 1668429236.9964
vector 678 Thesis.node[136].veinsmobility posx ETV
vector 679 Thesis.node[136].veinsmobility posy ETV
vector 680 Thesis.node[135].veinsmobility acceleration ETV
vector 681 Thesis.node[135].veinsmobility co2emission ETV
vector 682 Thesis.node[136].veinsmobility speed ETV
vector 683 Thesis.node[137].veinsmobility posx ETV
vector 684 Thesis.node[137].veinsmobility posy ETV
vector 685 Thesis.node[136].veinsmobility acceleration ETV
vector 686 Thesis.node[136].veinsmobility co2emission ETV
vector 687 Thesis.node[137].veinsmobility speed ETV
vector 688 Thesis.node[138].veinsmobility posx ETV
vector 689 Thesis.node[138].veinsmobility posy ETV
vector 690 Thesis.node[137].veinsmobility acceleration ETV
vector 691 Thesis.node[137].veinsmobility co2emission ETV
vector 692 Thesis.node[138].veinsmobility speed ETV
vector 693 Thesis.node[138].veinsmobility acceleration ETV
vector 694 Thesis.node[138].veinsmobility co2emission ETV
331	1180716 4613 33117 84036 156 329 174 0.973 11.798823503277 406.10556960632 1776.4970317766
330	1185329 5143 33117 84036 156 329 174 -4.5 2.6 9.8072938288705 318.28912864983
327	1190472 4955 33116 84036 155 329 175 0 19.785185920594 1144.4780413706 12253.634847281
326	1195427 5436 33115 84036 154 329 176 1132.9764707712 1651.2260974806 262063.36196775 395874599.00577
325	1200863 5438 33115 84036 154 329 176 2428.1924610549 2753.0111109133 467643.06182341 1244212667.2292
vector 695 Thesis.node[139].veinsmobility posx ETV
vector 696 Thesis.node[139].veinsmobility posy ETV
251	1206405 5666 8704 84037 118 330 213 0.973 10.073597957405 664.37066133622 3603.3872280386
250	1212071 6376 8704 84037 118 330 213 -4.1062610893487 2.3629851815465 11.046191851466 638.76227154122
247	1218447 6180 8703 84037 117 330 214 0 16.405687841963 1768.3343259278 21468.073968902
244	1224627 6605 8702 84037 116 330 215 1291.2483183898 1672.9681508361 338082.27167105 532887207.21432
243	1231232 6602 8702 84037 116 330 215 1862.6065048339 3089.8806584229 537533.77279819 1382760092.6966
vector 697 Thesis.node[139].veinsmobility speed ETV
vector 698 Thesis.node[140].veinsmobility posx ETV
vector 699 Thesis.node[140].veinsmobility posy ETV
vector 700 Thesis.node[139].veinsmobility acceleration ETV
vector 701 Thesis.node[139].veinsmobility co2emission ETV
vector 702 Thesis.node[140].veinsmobility speed ETV
vector 703 Thesis.node[141].veinsmobility posx ETV
vector 704 Thesis.node[141].veinsmobility posy ETV
vector 705 Thesis.node[140].veinsmobility acceleration ETV
vector 706 Thesis.node[140].veinsmobility co2emission ETV
vector 707 Thesis.node[141].veinsmobility speed ETV
641	1238439 960 84010 84043 303 335 33 0.973 8.5586442739621 110.31209984691 549.7746098408
640	1239399 1063 84010 84043 303 335 33 -3.2754448474843 2.3429457032052 11.825004438202 71.784227751306
637	1240462 1053 84009 84043 302 335 34 2.2323724519099 14.169612067334 389.48122180812 4920.5317148515
634	1241515 1080 84008 84043 301 335 35 1150.4138372731 1517.055887278 47436.940801392 64742251.005588
633	1242595 1083 84008 84043 301 335 35 3068.1405170995 3089.8279849999 107840.67340492 332277296.87881
vector 708 Thesis.node[142].veinsmobility posx ETV
vector 709 Thesis.node[142].veinsmobility posy ETV
vector 710 Thesis.node[141].veinsmobility acceleration ETV
vector 711 Thesis.node[141].veinsmobility co2emission ETV
vector 712 Thesis.node[142].veinsmobility speed ETV
vector 713 Thesis.node[143].veinsmobility posx ETV
vector 714 Thesis.node[143].veinsmobility posy ETV
vector 715 Thesis.node[142].veinsmobility acceleration ETV
vector 716 Thesis.node[142].veinsmobility co2emission ETV
vector 717 Thesis.node[143].veinsmobility speed ETV
336	1244230 4972 33119 84321 158 339 182 0.973 9.0555706819089 400.67992973562 1472.2540189944
335	1249202 5491 33119 84321 158 339 182 -3.3841497614036 2.4010964266793 7.2992743079317 292.06111859528
332	1254693 5238 33118 84321 157 339 183 0 15.418246819872 1302.3743939997 13318.819174721
329	1259931 5642 33117 84321 156 339 184 1354.4218864492 1657.6349793808 291028.60693536 461439153.10494
328	1265573 5685 33117 84321 156 339 184 2337.257972067 3336.5961106112 510980.72260222 1436071117.3028
381	1271258 4648 33484 84321 178 339 162 0.973 7.7583308897039 379.62844999367 1374.5180142014
380	1275906 5250 33484 84321 178 339 162 -4.5 2.2579108725189 5.4418349011568 258.62631714653
377	1281156 5008 33177 84321 177 339 163 0 12.638012085443 1373.9878669001 13160.674633356
374	1286164 5056 33138 84321 176 339 164 1350.505194488 1672.982180741 259634.13818933 412009623.95651
373	1291220 5068 33138 84321 176 339 164 2513.726336658 3088.964504976 458271.27431005 1287768748.8181
vector 718 Thesis.node[143].veinsmobility acceleration ETV
vector 719 Thesis.node[143].veinsmobility co2emission ETV
vector 720 Thesis.node[144].veinsmobility posx ETV
vector 721 Thesis.node[144].veinsmobility posy ETV
vector 722 Thesis.node[144].veinsmobility speed ETV
vector 723 Thesis.node[144].veinsmobility acceleration ETV
vector 724 Thesis.node[144].veinsmobility co2emission ETV
219	1296683 6469 8689 109113 103 345 243 0.973 7.4288801738962 519.48508478788 1811.4409814259
218	1303152 7036 8689 109113 103 345 243 -4.4174887026707 2.3666309167739 9.1282301682789 404.32966714552
217	1310188 6733 8688 109113 102 345 244 0 11.6740328671 1599.9456349448 15820.506842705
214	1316921 7532 8687 109113 101 345 245 1205.9064489929 1672.9844545964 380759.78168549 596367766.72339
213	1324453 7493 8687 109113 101 345 245 2238.22 3216.4427313791 674981.30094407 1880586684.1678
vector 725 Thesis.node[145].veinsmobility posx ETV
vector 726 Thesis.node[145].veinsmobility posy ETV
vector 727 Thesis.node[145].veinsmobility speed ETV
vector 728 Thesis.node[146].veinsmobility posx ETV
vector 729 Thesis.node[146].veinsmobility posy ETV
vector 730 Thesis.node[145].veinsmobility acceleration ETV
vector 731 Thesis.node[145].veinsmobility co2emission ETV
181	1332326 6837 7869 109116 85 348 264 0.93983017500538 11.475518339387 697.18310523179 3333.636907343
180	1339163 7476 7869 109116 85 348 264 -3.4698615665628 2.587423043882 14.006487622029 595.18661827743
177	1346639 7221 7868 109116 84 348 265 0 18.958838050723 1899.6789068259 22937.63948436
174	1353860 8095 7867 109116 83 348 266 546.17303954867 1714.8776092012 348641.65637058 500691621.06084
173	1361955 8153 7867 109116 83 348 266 2585.0500086605 3228.8517520148 767664.62834287 2229911041.336
vector 732 Thesis.node[146].veinsmobility speed ETV
vector 733 Thesis.node[147].veinsmobility posx ETV
vector 734 Thesis.node[147].veinsmobility posy ETV
vector 735 Thesis.node[146].veinsmobility acceleration ETV
vector 736 Thesis.node[146].veinsmobility co2emission ETV
376	1370384 4417 33138 109118 176 350 175 0.973 8.7935339630973 398.61161113438 1698.1044934461
375	1374801 4671 33138 109118 176 350 175 -3.4289318467411 2.4159709152323 11.661704977243 324.06806482604
372	1379472 4546 33137 109118 175 350 176 0 14.524374630631 996.11056638087 11141.068000972
369	1384018 5483 33135 109118 174 350 177 1122.1744500061 1794.9073080839 269303.48640795 417018753.43553
368	1389501 5462 33135 109118 174 350 177 3064.8548556642 3229.0293604179 559603.13260471 1769918270.2852
vector 737 Thesis.node[147].veinsmobility speed ETV
vector 738 Thesis.node[148].veinsmobility posx ETV
vector 739 Thesis.node[148].veinsmobility posy ETV
vector 740 Thesis.node[147].veinsmobility acceleration ETV
vector 741 Thesis.node[147].veinsmobility co2emission ETV
vector 742 Thesis.node[148].veinsmobility speed ETV
vector 743 Thesis.node[149].veinsmobility posx ETV
vector 744 Thesis.node[149].veinsmobility posy ETV
vector 745 Thesis.node[148].veinsmobility acceleration ETV
vector 746 Thesis.node[148].veinsmobility co2emission ETV
509	1395515 3289 34974 109122 235 354 120 0.973 13.084095774535 433.39839141415 2648.6244022123
508	1398804 3711 34974 109122 235 354 120 -4.5 2.322623271856 13.395140224265 393.32463826246
507	1402515 3644 34973 109122 234 354 121 0 19.850881692509 1208.370253561 15661.528527698
504	1406159 3783 34972 109122 233 354 122 953.42099463095 1657.5632895612 174824.19988274 257496223.15116
503	1409942 3783 34972 109122 233 354 122 2707.3255194859 3072.9166929028 346639.61195331 986792664.39736
vector 747 Thesis.node[149].veinsmobility speed ETV
vector 748 Thesis.node[150].veinsmobility posx ETV
vector 749 Thesis.node[150].veinsmobility posy ETV
vector 750 Thesis.node[149].veinsmobility acceleration ETV
vector 751 Thesis.node[149].veinsmobility co2emission ETV
vector 752 Thesis.node[150].veinsmobility speed ETV
vector 753 Thesis.node[151].veinsmobility posx ETV
vector 754 Thesis.node[151].veinsmobility posy ETV
vector 755 Thesis.node[150].veinsmobility acceleration ETV
vector 756 Thesis.node[150].veinsmobility co2emission ETV
vector 757 Thesis.node[151].veinsmobility speed ETV
vector 758 Thesis.node[152].veinsmobility posx ETV
vector 759 Thesis.node[152].veinsmobility posy ETV
vector 760 Thesis.node[151].veinsmobility acceleration ETV
vector 761 Thesis.node[151].veinsmobility co2emission ETV
vector 762 Thesis.node[152].veinsmobility speed ETV
vector 763 Thesis.node[153].veinsmobility posx ETV
vector 764 Thesis.node[153].veinsmobility posy ETV
vector 765 Thesis.node[152].veinsmobility acceleration ETV
vector 766 Thesis.node[152].veinsmobility co2emission ETV
vector 767 Thesis.node[153].veinsmobility speed ETV
vector 768 Thesis.node[154].veinsmobility posx ETV
vector 769 Thesis.node[154].veinsmobility posy ETV
vector 770 Thesis.node[153].veinsmobility acceleration ETV
vector 771 Thesis.node[153].veinsmobility co2emission ETV
vector 772 Thesis.node[154].veinsmobility speed ETV
vector 773 Thesis.node[155].veinsmobility posx ETV
vector 774 Thesis.node[155].veinsmobility posy ETV
vector 775 Thesis.node[154].veinsmobility acceleration ETV
vector 776 Thesis.node[154].veinsmobility co2emission ETV
236	1415381 6927 8698 109134 112 366 255 0.973 14.133857945329 679.10084411761 3491.4080054122
235	1422308 7687 8698 109134 112 366 255 -4.5 2.5662543012458 8.4442462452154 578.43184613415
232	1429995 7397 8697 109134 111 366 256 0 23.08127301282 1960.2835363589 21796.592599601
229	1437392 7916 8696 109134 110 366 257 743.72328154316 1644.7235258738 304476.23695487 395398844.21104
228	1445308 7928 8696 109134 110 366 257 2256.5065968737 2764.9989001226 669276.4347653 1748581680.8934
vector 777 Thesis.node[155].veinsmobility speed ETV
vector 778 Thesis.node[155].veinsmobility acceleration ETV
vector 779 Thesis.node[155].veinsmobility co2emission ETV
346	1453408 5545 33123 109136 162 368 207 0.973 12.487750235457 668.52790645809 3907.8627624459
345	1458953 6295 33123 109136 162 368 207 -4.4448635482159 2.3572434659605 2.6074469323061 651.83813215938
342	1465248 6109 33122 109136 161 368 208 0 21.157420675729 1834.5422197073 22727.654325539
339	1471357 6488 33121 109136 160 368 209 782.59918635508 1211.0295373385 198173.11762361 190159981.12535
338	1477845 6485 33121 109136 160 368 209 1624.2668544177 2758.5628031597 466489.89590379 1072767122.0564
271	1484330 6879 8712 109137 126 369 244 0.973 11.853920161793 539.32839497933 2241.247736141
270	1491209 7571 8712 109137 126 369 244 -4.320917938755 2.350457718448 9.0203078352847 398.08838820468
267	1498780 7189 8711 109137 125 369 245 0 20.985536386163 1466.3256026299 14053.025674417
264	1505969 7611 8710 109137 124 369 246 816.42613662296 1247.8689559672 255253.54932907 271295687.18803
263	1513580 7616 8710 109137 124 369 246 2115.1925107679 2920.6366596626 591893.59981348 1436847567.3036
526	1521196 3516 34986 109137 247 369 123 0.973 8.1340904822736 328.64771266253 1410.7882692447
525	1524712 3968 34986 109137 247 369 123 -4.0135296947892 2.5221328811883 0.10128624964387 280.58798688097
522	1528680 3803 34985 109137 246 369 124 0 13.354108062602 1158.0679126425 12675.212296714
521	1532483 3894 34984 109137 245 369 125 1228.3193114579 1672.9680610824 189380.72675779 289377279.04212
520	1536377 3879 34984 109137 245 369 125 2688.3708119081 3069.2113242254 354455.2616942 1007704370.606
vector 780 Thesis.node[156].veinsmobility posx ETV
vector 781 Thesis.node[156].veinsmobility posy ETV
314	1540360 6086 33109 109138 148 370 223 0.973 7.8289008666982 485.40783696412 1747.4804534542
313	1546446 6679 33109 109138 148 370 223 -4.5 2.5741242541955 9.6391523069481 371.75065680888
312	1553125 6412 33108 109138 147 370 224 0 13.132365689674 1483.0535103872 13859.389934342
309	1559537 6975 33107 109138 146 370 225 979.16787665692 1761.6950950409 328764.96728633 491335824.47852
308	1566512 6976 33107 109138 146 370 225 2175.2736667358 2871.3820874472 552607.11728331 1367070567.0689
vector 782 Thesis.node[156].veinsmobility speed ETV
606	1573541 2300 82807 109139 287 371 85 0.973 9.7823059139499 287.68025146782 1654.7528577257
605	1575841 2548 82807 109139 287 371 85 -4.4858880858637 2.4249036564515 5.7481531523096 303.11169141846
602	1578389 2511 82806 109139 286 371 86 0 16.390645270038 720.0216815725 8757.0647493698
601	1580900 2716 82805 109139 285 371 87 634.1115742749 1212.6635244178 80491.527482851 77151995.577255
600	1583616 2721 82805 109139 285 371 87 2707.8230706925 2758.7651192088 236967.54053342 645466841.44757
vector 783 Thesis.node[156].veinsmobility acceleration ETV
vector 784 Thesis.node[156].veinsmobility co2emission ETV
vector 785 Thesis.node[157].veinsmobility posx ETV
vector 786 Thesis.node[157].veinsmobility posy ETV
vector 787 Thesis.node[157].veinsmobility speed ETV
vector 788 Thesis.node[157].veinsmobility acceleration ETV
vector 789 Thesis.node[157].veinsmobility co2emission ETV
391	1586732 5066 34014 109184 182 377 196 0.973 8.2205628209822 309.23141248457 738.27947420724
390	1591798 5281 34014 109184 182 377 196 -2.9681862724815 2.3943397109884 4.9935616258688 168.88214174439
387	1597079 5044 34013 109184 181 377 197 0 12.62181600515 797.51570320515 6275.3024072565
384	1602123 6160 34012 109184 180 377 198 1490.4482206516 1658.4873703561 309929.80687429 485516723.01156
383	1608283 6156 34012 109184 180 377 198 2207.3744483705 2705.6344582385 463766.79428032 1090932092.0069
vector 790 Thesis.node[158].veinsmobility posx ETV
vector 791 Thesis.node[158].veinsmobility posy ETV
vector 792 Thesis.node[158].veinsmobility speed ETV
vector 793 Thesis.node[159].veinsmobility posx ETV
vector 794 Thesis.node[159].veinsmobility posy ETV
vector 795 Thesis.node[158].veinsmobility acceleration ETV
vector 796 Thesis.node[158].veinsmobility co2emission ETV
571	1614819 2931 82791 109365 271 380 110 0.973 8.4914387713787 272.54546427488 1151.3466728327
570	1617750 3271 82791 109365 271 380 110 -4.4542699395213 2.4725591302942 6.65283197397 262.66248398889
567	1621021 3160 82790 109365 270 380 111 0 13.98471787532 715.56447312416 7123.2492685211
564	1624181 3501 82789 109365 269 380 112 1342.8726949927 1657.6739176486 174392.74043434 272986645.44083
563	1627682 3489 82789 109365 269 380 112 2803.7820495105 3224.7390306154 337316.09080361 1018019005.1455
vector 797 Thesis.node[159].veinsmobility speed ETV
vector 798 Thesis.node[160].veinsmobility posx ETV
vector 799 Thesis.node[160].veinsmobility posy ETV
vector 800 Thesis.node[159].veinsmobility acceleration ETV
vector 801 Thesis.node[159].veinsmobility co2emission ETV
vector 802 Thesis.node[160].veinsmobility speed ETV
vector 803 Thesis.node[161].veinsmobility posx ETV
vector 804 Thesis.node[161].veinsmobility posy ETV
vector 805 Thesis.node[160].veinsmobility acceleration ETV
vector 806 Thesis.node[160].veinsmobility co2emission ETV
vector 807 Thesis.node[161].veinsmobility speed ETV
vector 808 Thesis.node[162].veinsmobility posx ETV
vector 809 Thesis.node[162].veinsmobility posy ETV
vector 810 Thesis.node[161].veinsmobility acceleration ETV
[...]
3055	68826521 2793 2496972 2497098 2874 3000 127 -0.51703873939086 1.5877568469299 5.2041704279304e-018 3.8207103537722
3052	68829314 2769 2496972 2497098 2874 3000 127 0 2.1772870120026 7.1785841009404 10.982519152306
3049	68832083 4445 2496972 2497098 2874 3000 127 925.11153693549 930.01045845348 117908.46481973 109468414.02171
3048	68836528 4445 2496972 2497098 2874 3000 127 3191.9455638956 3197.6204446654 405863.539881 1297049791.7167
5370	68840973 3205 2496972 2497098 2874 3000 127 0.973 1.1619346589609 124.1078431824 121.37570977936
5369	68844178 2759 2496972 2497098 2874 3000 127 -0.14156275798083 0.29520211728389 0.43495931737694 0.28444084302893
5360	68846937 2754 2496972 2497098 2874 3000 127 0 0.43495931737694 1.5936728681557 0.51019053494364
5358	68849691 4445 2496972 2497098 2874 3000 127 927.28023555936 927.38110631747 117777.13550877 109224044.4972
5357	68854136 4442 2496972 2497098 2874 3000 127 2867.3183028241 2868.2117108 364151.77149511 1044145770.6971
3091	68858578 3205 2496972 2497098 2874 3000 127 0.973 1.1551636348608 124.07311276045 121.29675645774
3090	68861783 2759 2496972 2497098 2874 3000 127 -0.14257970820483 0.28956949788916 0.24003399777272 0.22525070070059
3087	68864542 2759 2496972 2497098 2874 3000 127 0 0.38261370597754 1.3605314131718 0.39257699684361
3084	68867301 4445 2496972 2497098 2874 3000 127 926.43446493422 926.53963745905 117670.25619461 109025899.1779
3083	68871746 4445 2496972 2497098 2874 3000 127 2874.7711563932 2875.7026649324 365098.39699417 1049581414.9495
6498	68876191 25 2497098 2497098 3000 3000 1 0.973 0.973 0.973 0.946729
6497	68876216 21 2497098 2497098 3000 3000 1 0 0 0 0
6494	68876237 42 2497097 2497098 2999 3000 2 0 0 0 0
6491	68876279 78 2497096 2497098 2998 3000 3 922.17 922.17 2766.51 2551192.5267
6490	68876357 81 2497096 2497098 2998 3000 3 2940.04 2940.04 8820.12 25931505.6048
4311	68876438 3175 2496972 2497098 2874 3000 127 0.973 0.973 123.571 120.234583
4310	68879613 2667 2496972 2497098 2874 3000 127 0 0 0 0
4307	68882280 2667 2496972 2497098 2874 3000 127 0 0 0 0
4303	68884947 4445 2496972 2497098 2874 3000 127 895.67733230638 895.67733230638 113751.02120291 101884211.21815
4302	68889392 4445 2496972 2497098 2874 3000 127 2938.9942920235 2938.9942920235 373252.27508698 1096986305.9654
3201	68893837 3175 2496972 2497098 2874 3000 127 0.973 0.973 123.571 120.234583
3200	68897012 2667 2496972 2497098 2874 3000 127 0 0 0 0
3197	68899679 2667 2496972 2497098 2874 3000 127 0 0 0 0
3194	68902346 4445 2496972 2497098 2874 3000 127 952.03961106712 952.03961106712 120909.03060552 115110186.47219
3193	68906791 4318 2496972 2497098 2874 3000 127 2766.157349493 2766.157349493 351301.98338561 971756563.23357
3206	68911109 3175 2496972 2497098 2874 3000 127 0.973 0.973 123.571 120.234583
3205	68914284 2667 2496972 2497098 2874 3000 127 0 0 0 0
3202	68916951 2667 2496972 2497098 2874 3000 127 0 0 0 0
3199	68919618 4403 2496972 2497098 2874 3000 127 977.6862855449 977.86137732044 124181.04106512 121424654.09027
3198	68924021 4445 2496972 2497098 2874 3000 127 3205.1996499241 3205.1999038643 407060.36620585 1304709777.446
3214	68928466 3175 2496972 2497098 2874 3000 127 0.973 0.973 123.571 120.234583
3213	68931641 2667 2496972 2497098 2874 3000 127 0 0 0 0
3212	68934308 2667 2496972 2497098 2874 3000 127 0 0 0 0
3209	68936975 4445 2496972 2497098 2874 3000 127 970.18585303144 970.36092315093 123228.48429515 119568972.0559
3208	68941420 4445 2496972 2497098 2874 3000 127 3205.3142469722 3205.3170023131 407075.02508979 1304803748.44
3241	68945865 3175 2496972 2497098 2874 3000 127 0.973 0.973 123.571 120.234583
3240	68949040 2667 2496972 2497098 2874 3000 127 0 0 0 0
3237	68951707 2667 2496972 2497098 2874 3000 127 0 0 0 0
3234	68954374 4318 2496972 2497098 2874 3000 127 945.7226835218 945.7226835218 120106.78080727 113587707.05422
3233	68958692 4318 2496972 2497098 2874 3000 127 2779.758485124 2779.758485124 353029.32761075 981336268.92362
3338	68963010 3175 2496972 2497098 2874 3000 127 0.973 0.973 123.571 120.234583
3337	68966185 2667 2496972 2497098 2874 3000 127 0 0 0 0
3334	68968852 2667 2496972 2497098 2874 3000 127 0 0 0 0
3331	68971519 4445 2496972 2497098 2874 3000 127 955.43723821233 955.43723821233 121340.52925297 115933260.15268
3330	68975964 4445 2496972 2497098 2874 3000 127 2759.4884078377 2759.4884078377 350455.02779538 967076586.66979
3378	68980409 3185 2496972 2497098 2874 3000 127 0.973 1.1100005039616 123.70800050396 120.5199551188
3377	68983594 2706 2496972 2497098 2874 3000 127 -1.0446420671265e-005 1.0446420671265e-005 0 2.1825540968208e-010
3372	68986300 2686 2496972 2497098 2874 3000 127 0 1.0446420671265e-005 1.0446420671265e-005 1.0912770484104e-010
3367	68988986 4445 2496972 2497098 2874 3000 127 985.18763061003 985.36272238024 125133.71188794 123294850.08111
3366	68993431 4445 2496972 2497098 2874 3000 127 3205.1887705259 3205.1890244661 407058.98452228 1304700920.3174
5465	68997876 3175 2496972 2497098 2874 3000 127 0.973 0.973 123.571 120.234583
5464	69001051 2667 2496972 2497098 2874 3000 127 0 0 0 0
5459	69003718 2667 2496972 2497098 2874 3000 127 0 0 0 0
5455	69006385 4445 2496972 2497098 2874 3000 127 866.12975339596 866.12975339596 109998.47868129 95272955.214154
5454	69010830 4445 2496972 2497098 2874 3000 127 2933.7511514522 2933.7511514522 372586.39623443 1093075768.9682
3424	69015275 3175 2496972 2497098 2874 3000 127 0.973 0.973 123.571 120.234583
3423	69018450 2667 2496972 2497098 2874 3000 127 0 0 0 0
3419	69021117 2667 2496972 2497098 2874 3000 127 0 0 0 0
3416	69023784 4445 2496972 2497098 2874 3000 127 903.06422698859 903.06422698859 114689.15682755 103571674.75445
3415	69028229 4445 2496972 2497098 2874 3000 127 2940.3050771582 2940.3050771582 373418.7447991 1097965031.2388
6090	69032674 3175 2496972 2497098 2874 3000 127 0.973 0.973 123.571 120.234583
6089	69035849 2667 2496972 2497098 2874 3000 127 0 0 0 0
6086	69038516 2667 2496972 2497098 2874 3000 127 0 0 0 0
6083	69041183 4445 2496972 2497098 2874 3000 127 848.68824998803 848.68824998803 107783.40774848 91474511.699803
6082	69045628 4445 2496972 2497098 2874 3000 127 2930.6503333311 2930.6503333311 372192.59233305 1090766344.7843
6061	69050073 3175 2496972 2497098 2874 3000 127 0.973 0.973 123.571 120.234583
6060	69053248 2667 2496972 2497098 2874 3000 127 0 0 0 0
6059	69055915 2667 2496972 2497098 2874 3000 127 0 0 0 0
6058	69058582 4445 2496972 2497098 2874 3000 127 936.87304136164 936.87304136164 118982.87625293 111471849.14504
6057	69063027 4445 2496972 2497098 2874 3000 127 2814.0139757795 2814.0139757795 357379.774924 1005671681.2971
3451	69067472 3195 2496972 2497098 2874 3000 127 0.973 2.5478667564189 126.02907758631 128.27826865346
3450	69070667 2755 2496972 2497098 2874 3000 127 -1.6468161007769 1.6618953589099 0 9.1840503020669
3445	69073422 2739 2496972 2497098 2874 3000 127 0 3.2778072052887 7.7433224932858 16.891749617862
3441	69076161 4444 2496972 2497098 2874 3000 127 1001.9810000671 1009.4820000908 127917.75001293 128843599.86749
3440	69080605 4445 2496972 2497098 2874 3000 127 3205.1308735865 3205.1565707432 407052.60232267 1304660008.3452
4713	69085050 3200 2496971 2497098 2873 3000 128 0.973 0.973 124.544 121.181312
4712	69088250 2688 2496971 2497098 2873 3000 128 0 0 0 0
4709	69090938 2688 2496971 2497098 2873 3000 128 0 0 0 0
4701	69093626 4476 2496971 2497098 2873 3000 128 932.2433998304 932.24404412336 119327.23507062 111242101.79374
4700	69098102 4356 2496971 2497098 2873 3000 128 2852.772594897 2852.7783013721 365154.91497271 1041703999.4433
5418	69102458 3220 2496971 2497098 2873 3000 128 0.973 1.1482447985996 124.88912354949 121.91249195675
5417	69105678 2766 2496971 2497098 2873 3000 128 -0.13523376332741 0.29068169937459 0.18804200726876 0.21389176025259
5412	69108444 2762 2496971 2497098 2873 3000 128 0 0.32327577059617 0.98585147976106 0.24617741924261
5408	69111206 4480 2496971 2497098 2873 3000 128 928.12327850515 928.22257517797 118812.23775533 110283967.52171
5407	69115686 4480 2496971 2497098 2873 3000 128 2859.8654492365 2860.7449156065 366065.00828147 1046903050.5658
3569	69120166 3175 2496972 2497098 2874 3000 127 0.973 0.973 123.571 120.234583
3568	69123341 2667 2496972 2497098 2874 3000 127 0 0 0 0
3567	69126008 2667 2496972 2497098 2874 3000 127 0 0 0 0
3564	69128675 4445 2496972 2497098 2874 3000 127 933.31983850005 933.31983850005 118531.61948951 110627911.9591
3563	69133120 4445 2496972 2497098 2874 3000 127 2801.5698672454 2801.5698672454 355799.37314016 996796802.57428
3606	69137565 3175 2496972 2497098 2874 3000 127 0.973 0.973 123.571 120.234583
3605	69140740 2667 2496972 2497098 2874 3000 127 0 0 0 0
3600	69143407 2667 2496972 2497098 2874 3000 127 0 0 0 0
3598	69146074 4445 2496972 2497098 2874 3000 127 959.67696181035 959.67696181035 121878.97414991 116964443.62075
3597	69150519 4318 2496972 2497098 2874 3000 127 2753.297447811 2753.297447811 349668.775872 962742148.18758
3616	69154837 3340 2496972 2497098 2874 3000 127 0.973 1.178545694039 126.30631292502 125.99974966464
3615	69158177 2993 2496972 2497098 2874 3000 127 -0.44605360641791 0.44250834803155 1.2359904766335e-017 0.39564348606764
3612	69161170 2937 2496972 2497098 2874 3000 127 0 0.44682024183101 7.4307886552193 3.2481734840108
3609	69164107 4410 2496972 2497098 2874 3000 127 915.70083539942 915.7395320831 116295.46163495 106493184.25632
3608	69168517 4410 2496972 2497098 2874 3000 127 3125.941395973 3133.4421577701 397637.3099764 1245004794.9942
3634	69172927 3175 2496972 2497098 2874 3000 127 0.973 0.973 123.571 120.234583
3633	69176102 2667 2496972 2497098 2874 3000 127 0 0 0 0
3632	69178769 2667 2496972 2497098 2874 3000 127 0 0 0 0
3631	69181436 4445 2496972 2497098 2874 3000 127 829.72374109508 829.72374109508 105374.91511907 87432068.790175
3630	69185881 4445 2496972 2497098 2874 3000 127 2915.0144396443 2915.0144396443 370206.83383483 1079158266.2835
6118	69190326 3280 2496971 2497098 2873 3000 128 0.973 1.2253983068954 126.06300117896 124.43073026763
6117	69193606 3064 2496971 2497098 2873 3000 128 -0.43962761164934 0.49337311955688 -0.38524261427289 1.3806226810849
6114	69196670 3037 2496971 2497098 2873 3000 128 0 0.69023520293901 6.1363839451601 2.211894243167
6108	69199707 4475 2496971 2497098 2873 3000 128 897.94397939607 903.48901465931 115575.87022208 104357898.94501
6107	69204182 4480 2496971 2497098 2873 3000 128 2942.6467541687 2943.6298253104 376772.07914713 1109040629.2609
3663	69208662 3175 2496972 2497098 2874 3000 127 0.973 0.973 123.571 120.234583
3662	69211837 2667 2496972 2497098 2874 3000 127 0 0 0 0
3655	69214504 2667 2496972 2497098 2874 3000 127 0 0 0 0
3651	69217171 4445 2496972 2497098 2874 3000 127 965.46411049986 965.46411049986 122613.94203348 118379360.48024
3650	69221616 4445 2496972 2497098 2874 3000 127 2748.5694485171 2748.5694485171 349068.31996167 959438519.69185
3676	69226061 3204 2496972 2497098 2874 3000 127 0.973 1.1518536023803 124.06833756772 121.28577118315
3675	69229265 2745 2496972 2497098 2874 3000 127 -0.13856808520031 0.28377008150706 0.36214518948353 0.19752442472283
3672	69232010 2744 2496972 2497098 2874 3000 127 0 0.36214518948353 1.07652923979 0.31140749033593
3667	69234754 4444 2496972 2497098 2874 3000 127 928.96837601169 929.06404404844 117990.89077564 109620868.5687
3666	69239198 4445 2496972 2497098 2874 3000 127 2852.4125955605 2853.2599232566 362258.55026929 1033316987.5225
6096	69243643 3175 2496972 2497098 2874 3000 127 0.973 0.973 123.571 120.234583
6095	69246818 2667 2496972 2497098 2874 3000 127 0 0 0 0
6091	69249485 2667 2496972 2497098 2874 3000 127 0 0 0 0
6088	69252152 4445 2496972 2497098 2874 3000 127 924.61909259799 924.61909259799 117426.62475994 108574899.23238
6087	69256597 4445 2496972 2497098 2874 3000 127 2922.9606851072 2922.9606851072 371216.00700861 1085049794.1686
3699	69261042 3175 2496972 2497098 2874 3000 127 0.973 0.973 123.571 120.234583
3698	69264217 2667 2496972 2497098 2874 3000 127 0 0 0 0
3697	69266884 2667 2496972 2497098 2874 3000 127 0 0 0 0
3694	69269551 4445 2496972 2497098 2874 3000 127 972.34203767492 972.34203767492 123487.43878471 120072027.85519
3693	69273996 4445 2496972 2497098 2874 3000 127 2745.5887632557 2745.5887632557 348689.77293347 957358722.4283
3771	69278441 3175 2496972 2497098 2874 3000 127 0.973 0.973 123.571 120.234583
3770	69281616 2667 2496972 2497098 2874 3000 127 0 0 0 0
3767	69284283 2667 2496972 2497098 2874 3000 127 0 0 0 0
3764	69286950 4445 2496972 2497098 2874 3000 127 935.91762932348 935.91762932348 118861.53892408 111244609.72757
3763	69291395 4445 2496972 2497098 2874 3000 127 2821.4539929278 2821.4539929278 358324.65710183 1010996534.5444
3786	69295840 3220 2496971 2497098 2873 3000 128 0.973 2.2216971394107 126.0022288693 125.62217347146
3785	69299060 2790 2496972 2497098 2874 3000 127 -0.55829144406693 1.8216996145284 2.7755575615629e-017 4.4895702333984
3782	69301850 2769 2496972 2497098 2874 3000 127 0 2.2792378466954 7.4718613121735 11.805297242705
3779	69304619 4444 2496972 2497098 2874 3000 127 1009.4820002343 1016.9830002808 128877.23623821 130783655.54383
3778	69309063 4412 2496972 2497098 2874 3000 127 3205.1051764293 3205.130873586 407049.31528524 1304638937.6088
3854	69313475 3200 2496971 2497098 2873 3000 128 0.973 0.973 124.544 121.181312
3853	69316675 2688 2496971 2497098 2873 3000 128 0 0 0 0
3852	69319363 2688 2496971 2497098 2873 3000 128 0 0 0 0
3849	69322051 4480 2496971 2497098 2873 3000 128 828.40294404776 828.40294404776 106035.57683811 87840184.026497
3848	69326531 4480 2496971 2497098 2873 3000 128 2907.6291378445 2907.6291378445 372176.5296441 1082151322.015
3879	69331011 3250 2496971 2497098 2873 3000 128 0.973 1.2833492294036 125.71111021976 123.74534928699
3878	69334261 2848 2496971 2497098 2873 3000 128 -0.44922087240207 0.54139436572433 -2.2204460492503e-016 0.9803960625679
3877	69337109 2820 2496971 2497098 2873 3000 128 0 1.3114293461785 7.4909620863367 7.2705175089799
3874	69339929 4480 2496971 2497098 2873 3000 128 1024.4840012649 1031.9850006873 131828.26217844 135772394.83425
3873	69344409 4480 2496971 2497098 2873 3000 128 3205.0537821148 3205.0794792694 410247.79475787 1314869164.8887
3884	69348889 3260 2496971 2497098 2873 3000 128 0.973 1.2490731673851 125.80804509266 123.92036769996
3883	69352149 2880 2496971 2497098 2873 3000 128 -0.42199230998462 0.44843721955334 -7.8062556418956e-018 0.77451921556297
3882	69355029 2850 2496971 2497098 2873 3000 128 0 1.1851537309831 7.4843089098555 6.491199936102
3881	69357879 4479 2496971 2497098 2873 3000 128 1031.9850022256 1039.4860008575 132794.94027815 137770842.47881
3880	69362358 4480 2496971 2497098 2873 3000 128 3205.0280849577 3205.0537821095 410244.48308229 1314847936.7303
3891	69366838 3200 2496971 2497098 2873 3000 128 0.973 0.973 124.544 121.181312
3890	69370038 2688 2496971 2497098 2873 3000 128 0 0 0 0
3887	69372726 2688 2496971 2497098 2873 3000 128 0 0 0 0
3886	69375414 4480 2496971 2497098 2873 3000 128 933.77526670789 933.77526670789 119523.23413861 111607839.83557
3885	69379894 4480 2496971 2497098 2873 3000 128 2839.3062796446 2839.3062796446 363431.20379451 1031892499.1526
3931	69384374 3287 2496971 2497098 2873 3000 128 0.973 1.2121056986502 126.20639576114 124.73242247887
3930	69387661 2894 2496971 2497098 2873 3000 128 -0.43758385718102 0.40990458827878 0 0.59531056165268
3927	69390555 2866 2496971 2497098 2873 3000 128 0 1.0514278616722 7.8744226022422 5.8243138031176
3926	69393421 4452 2496971 2497098 2873 3000 128 1039.486002289 1046.9870009962 133761.26262779 139783147.39491
3925	69397873 4478 2496971 2497098 2873 3000 128 3205.0023878006 3205.0280849528 410241.17262546 1314826716.5553
3951	69402351 3200 2496971 2497098 2873 3000 128 0.973 0.973 124.544 121.181312
3950	69405551 2688 2496971 2497098 2873 3000 128 0 0 0 0
3947	69408239 2688 2496971 2497098 2873 3000 128 0 0 0 0
3944	69410927 4480 2496971 2497098 2873 3000 128 941.56381954464 941.56381954464 120520.16890171 113477430.56326
3943	69415407 4480 2496971 2497098 2873 3000 128 2777.7132550938 2777.7132550938 355547.296652 987608438.72301
3954	69419887 3239 2496971 2497098 2873 3000 128 0.973 1.3910521603023 125.67578406563 123.7417612782
3953	69423126 2830 2496971 2497098 2873 3000 128 -0.43758442034014 0.58166642439898 0 1.3169680501558
3952	69425956 2801 2496971 2497098 2873 3000 128 0 1.57004704717 7.684590276672 8.7634591663462
3949	69428757 4478 2496971 2497098 2873 3000 128 1016.9830011513 1024.4840004084 130861.31391105 133787996.20169
3948	69433235 4480 2496971 2497098 2873 3000 128 3205.0794792723 3205.1051764263 410251.10735899 1314890399.1515
3969	69437715 3200 2496971 2497098 2873 3000 128 0.973 0.973 124.544 121.181312
3968	69440915 2688 2496971 2497098 2873 3000 128 0 0 0 0
3965	69443603 2688 2496971 2497098 2873 3000 128 0 0 0 0
3963	69446291 4480 2496971 2497098 2873 3000 128 942.81389461425 942.81389461425 120680.17851062 113778949.10434
3962	69450771 4480 2496971 2497098 2873 3000 128 2762.7115887714 2762.7115887714 353627.08336274 976969641.30969
4001	69455251 3370 2496971 2497098 2873 3000 128 0.973 1.1694927421982 127.27269900107 126.93076172969
4000	69458621 3006 2496971 2497098 2873 3000 128 -0.40819067178604 0.40671940638056 -2.0816681711722e-017 0.33581254551566
3995	69461627 2958 2496971 2497098 2873 3000 128 0 0.44695751398278 7.4067990834442 3.1993443632147
3989	69464585 4477 2496971 2497098 2873 3000 128 915.64511582124 915.70083540129 117204.87073487 107320169.79643
3988	69469062 4478 2496971 2497098 2873 3000 128 3133.4421575186 3140.9428702183 401731.62261352 1260847478.1382
4056	69473540 3200 2496971 2497098 2873 3000 128 0.973 0.973 124.544 121.181312
4055	69476740 2688 2496971 2497098 2873 3000 128 0 0 0 0
4052	69479428 2688 2496971 2497098 2873 3000 128 0 0 0 0
4049	69482116 4480 2496971 2497098 2873 3000 128 930.59526677387 930.59526677387 119116.19414706 110848966.46937
4048	69486596 4480 2496971 2497098 2873 3000 128 2838.9450657413 2838.9450657413 363384.96841489 1031629963.046
4102	69491076 3200 2496971 2497098 2873 3000 128 0.973 0.973 124.544 121.181312
4101	69494276 2688 2496971 2497098 2873 3000 128 0 0 0 0
4099	69496964 2688 2496971 2497098 2873 3000 128 0 0 0 0
4096	69499652 4480 2496971 2497098 2873 3000 128 994.64705550807 994.64705550807 127314.82310503 126633313.92395
4095	69504132 4480 2496971 2497098 2873 3000 128 2747.8606365452 2747.8606365452 351726.16147779 966494473.96796
6428	69508612 710 2497071 2497098 2973 3000 28 0.973 1.1304161471016 27.401416147102 26.839523665628
6427	69509322 637 2497071 2497098 2973 3000 28 -0.3230404693304 0 -0.44690627497912 0.1179603676498
6426	69509959 654 2497070 2497098 2972 3000 29 0 0.44690627497912 1.0027515596847 0.40638478129305
6420	69510613 1048 2497069 2497098 2971 3000 30 1061.9863415853 1063.265961033 31863.395393863 33842535.865045
6419	69511661 1049 2497069 2497098 2971 3000 30 3204.8468739355 3204.8835712513 96146.398012395 308137661.69495
6368	69512710 1265 2497050 2497098 2952 3000 49 0.973 1.1645276852696 48.409532306702 47.949597763453
6367	69513975 1260 2497050 2497098 2952 3000 49 -4.1648895293416 0.30997414250827 -9.7036879454472 35.250893579875
6366	69515235 1274 2497049 2497098 2951 3000 50 0 9.7036879454472 19.931329520558 132.07531534908
6357	69516509 1784 2497048 2497098 2950 3000 51 916.77728531237 917.96922857464 46812.916050716 42969593.23193
6356	69518293 1783 2497048 2497098 2950 3000 51 3001.1225999476 3026.3404762232 153147.60596843 459887467.24198
4281	69520076 3200 2496971 2497098 2873 3000 128 0.973 0.973 124.544 121.181312
4280	69523276 2688 2496971 2497098 2873 3000 128 0 0 0 0
4277	69525964 2688 2496971 2497098 2873 3000 128 0 0 0 0
4274	69528652 4480 2496971 2497098 2873 3000 128 826.02397739847 826.02397739847 105731.069107 87336398.238359
4273	69533132 4480 2496971 2497098 2873 3000 128 2892.8164360877 2892.8164360877 370280.50381922 1071153527.4111

