version 2
run General-0-20200619-13:49:02-13944
attr configname General
attr datetime 20200619-13:49:02
attr experiment General
attr inifile omnetpp.ini
attr iterationvars ""
attr iterationvarsf ""
attr measurement ""
attr network globcomm.simulation.Thesis
attr processid 13944
attr repetition 0
attr replication #0
attr resultdir results
attr runnumber 0
attr seedset 0
param **.debug false
param **.coreDebug false
param *.playgroundSizeX 5000m
param *.playgroundSizeY 5000m
param *.playgroundSizeZ 500m
param *.annotations.draw true
param *.manager.updateInterval 1s
param *.manager.host "\"localhost\""
param *.manager.port 9999
param *.manager.autoShutdown true
param *.manager.launchConfig "xmldoc(\"erlangen.launchd.xml\")"
param Thesis.rsu[0].mobility.x 2000
param Thesis.rsu[0].mobility.y 1000
param Thesis.rsu[0].mobility.z 3
param *.rsu[*].applType "\"globcomm.src.RSU11p\""
param *.rsu[*].appl.headerLength "80 bit"
param *.rsu[*].appl.sendBeacons false
param *.rsu[*].appl.dataOnSch false
param *.rsu[*].appl.beaconInterval 1s
param *.rsu[*].appl.beaconUserPriority 7
param *.rsu[*].appl.dataUserPriority 5
param *.connectionManager.sendDirect true
param *.connectionManager.maxInterfDist 400m
param *.connectionManager.drawMaxIntfDist true
param *.**.nic.mac1609_4.useServiceChannel false
param *.**.nic.mac1609_4.txPower 30mW
param *.**.nic.mac1609_4.bitrate 6Mbps
param *.**.nic.phy80211p.sensitivity -89dBm
param *.**.nic.phy80211p.useThermalNoise true
param *.**.nic.phy80211p.thermalNoise -110dBm
param *.**.nic.phy80211p.decider "xmldoc(\"config.xml\")"
param *.**.nic.phy80211p.analogueModels "xmldoc(\"config.xml\")"
param *.**.nic.phy80211p.usePropagationDelay true
param *.**.nic.phy80211p.antenna "xmldoc(\"antenna.xml\", \"/root/Antenna[@id='monopole']\")"
param *.node[*].applType "\"globcomm.src.MyThesisApp\""
param *.node[*].appl.headerLength "80 bit"
param *.node[*].appl.sendBeacons false
param *.node[*].appl.dataOnSch false
param *.node[*].appl.beaconInterval 1s
param *.node[*].veinsmobilityType.debug true
param *.node[*].veinsmobility.x 0
param *.node[*].veinsmobility.y 0
param *.node[*].veinsmobility.z 1.895
param *.node[*].veinsmobility.accidentCount 0
param *.node[*].veinsmobility.accidentStart 75s
param *.node[*].veinsmobility.accidentDuration 50s
param Thesis.manager.numVehicles 5

scalar Thesis.node[15].appl generatedWSMs 23
scalar Thesis.node[15].appl receivedWSMs 142
scalar Thesis.node[15].appl generatedBSMs 1
scalar Thesis.node[15].appl receivedBSMs 4
scalar Thesis.node[15].appl generatedWSAs 0
scalar Thesis.node[15].appl receivedWSAs 0
scalar Thesis.node[15].nic.phy80211p busyTime 0.00069975510204082
scalar Thesis.node[15].nic.mac1609_4 ReceivedUnicastPackets 0
scalar Thesis.node[15].nic.mac1609_4 ReceivedBroadcasts 146
scalar Thesis.node[15].nic.mac1609_4 SentPackets 24
scalar Thesis.node[15].nic.mac1609_4 SentAcknowledgements 0
scalar Thesis.node[15].nic.mac1609_4 SNIRLostPackets 4
scalar Thesis.node[15].nic.mac1609_4 RXTXLostPackets 0
scalar Thesis.node[15].nic.mac1609_4 TotalLostPackets 4
scalar Thesis.node[15].nic.mac1609_4 DroppedPacketsInMac 0
scalar Thesis.node[15].nic.mac1609_4 TooLittleTime 0
scalar Thesis.node[15].nic.mac1609_4 TimesIntoBackoff 25
scalar Thesis.node[15].nic.mac1609_4 SlotsBackoff 39
scalar Thesis.node[15].nic.mac1609_4 NumInternalContention 0
scalar Thesis.node[15].nic.mac1609_4 totalBusyTime 0.039288
scalar Thesis.node[15].veinsmobility startTime 27
scalar Thesis.node[15].veinsmobility totalTime 48
scalar Thesis.node[15].veinsmobility stopTime 76
scalar Thesis.node[15].veinsmobility minSpeed 0
scalar Thesis.node[15].veinsmobility maxSpeed 20.98933895213
scalar Thesis.node[15].veinsmobility totalDistance 377.35896017737
scalar Thesis.node[15].veinsmobility totalCO2Emission 146.76399249837
scalar Thesis.node[2].appl generatedWSMs 27
scalar Thesis.node[2].appl receivedWSMs 163
scalar Thesis.node[2].appl generatedBSMs 1
scalar Thesis.node[2].appl receivedBSMs 5
scalar Thesis.node[2].appl generatedWSAs 0
scalar Thesis.node[2].appl receivedWSAs 0
scalar Thesis.node[2].nic.phy80211p busyTime 0.00038723232323232
scalar Thesis.node[2].nic.mac1609_4 ReceivedUnicastPackets 0
scalar Thesis.node[2].nic.mac1609_4 ReceivedBroadcasts 168
scalar Thesis.node[2].nic.mac1609_4 SentPackets 28
scalar Thesis.node[2].nic.mac1609_4 SentAcknowledgements 0
scalar Thesis.node[2].nic.mac1609_4 SNIRLostPackets 0
scalar Thesis.node[2].nic.mac1609_4 RXTXLostPackets 0
scalar Thesis.node[2].nic.mac1609_4 TotalLostPackets 0
scalar Thesis.node[2].nic.mac1609_4 DroppedPacketsInMac 0
scalar Thesis.node[2].nic.mac1609_4 TooLittleTime 0
scalar Thesis.node[2].nic.mac1609_4 TimesIntoBackoff 30
scalar Thesis.node[2].nic.mac1609_4 SlotsBackoff 38
scalar Thesis.node[2].nic.mac1609_4 NumInternalContention 0
scalar Thesis.node[2].nic.mac1609_4 totalBusyTime 0.044732
scalar Thesis.node[2].veinsmobility startTime 3
scalar Thesis.node[2].veinsmobility totalTime 98
scalar Thesis.node[2].veinsmobility stopTime 102
scalar Thesis.node[2].veinsmobility minSpeed 2.7920323958171
scalar Thesis.node[2].veinsmobility maxSpeed 14.556712390777
scalar Thesis.node[2].veinsmobility totalDistance 819.6510234721
scalar Thesis.node[2].veinsmobility totalCO2Emission 268.58968773095
scalar Thesis.node[28].appl generatedWSMs 0
scalar Thesis.node[28].appl receivedWSMs 0
scalar Thesis.node[28].appl generatedBSMs 0
scalar Thesis.node[28].appl receivedBSMs 0
scalar Thesis.node[28].appl generatedWSAs 0
scalar Thesis.node[28].appl receivedWSAs 0
scalar Thesis.node[28].nic.phy80211p busyTime 0
scalar Thesis.node[28].nic.mac1609_4 ReceivedUnicastPackets 0
scalar Thesis.node[28].nic.mac1609_4 ReceivedBroadcasts 0
scalar Thesis.node[28].nic.mac1609_4 SentPackets 0
scalar Thesis.node[28].nic.mac1609_4 SentAcknowledgements 0
scalar Thesis.node[28].nic.mac1609_4 SNIRLostPackets 0
scalar Thesis.node[28].nic.mac1609_4 RXTXLostPackets 0
scalar Thesis.node[28].nic.mac1609_4 TotalLostPackets 0
scalar Thesis.node[28].nic.mac1609_4 DroppedPacketsInMac 0
scalar Thesis.node[28].nic.mac1609_4 TooLittleTime 0
scalar Thesis.node[28].nic.mac1609_4 TimesIntoBackoff 0
scalar Thesis.node[28].nic.mac1609_4 SlotsBackoff 0
scalar Thesis.node[28].nic.mac1609_4 NumInternalContention 0
scalar Thesis.node[28].nic.mac1609_4 totalBusyTime 0
scalar Thesis.node[28].veinsmobility startTime 65
scalar Thesis.node[28].veinsmobility totalTime 38
scalar Thesis.node[28].veinsmobility stopTime 104
scalar Thesis.node[28].veinsmobility minSpeed 2.8097121510317
scalar Thesis.node[28].veinsmobility maxSpeed 26.033890477306
scalar Thesis.node[28].veinsmobility totalDistance 521.23829480651
scalar Thesis.node[28].veinsmobility totalCO2Emission 166.37260266441
scalar Thesis.node[8].appl generatedWSMs 22
scalar Thesis.node[8].appl receivedWSMs 204
scalar Thesis.node[8].appl generatedBSMs 1
scalar Thesis.node[8].appl receivedBSMs 13
scalar Thesis.node[8].appl generatedWSAs 0
scalar Thesis.node[8].appl receivedWSAs 0
scalar Thesis.node[8].nic.phy80211p busyTime 0.00042796581196581
scalar Thesis.node[8].nic.mac1609_4 ReceivedUnicastPackets 0
scalar Thesis.node[8].nic.mac1609_4 ReceivedBroadcasts 217
scalar Thesis.node[8].nic.mac1609_4 SentPackets 23
scalar Thesis.node[8].nic.mac1609_4 SentAcknowledgements 0
scalar Thesis.node[8].nic.mac1609_4 SNIRLostPackets 6
scalar Thesis.node[8].nic.mac1609_4 RXTXLostPackets 0
scalar Thesis.node[8].nic.mac1609_4 TotalLostPackets 6
scalar Thesis.node[8].nic.mac1609_4 DroppedPacketsInMac 0
scalar Thesis.node[8].nic.mac1609_4 TooLittleTime 0
scalar Thesis.node[8].nic.mac1609_4 TimesIntoBackoff 23
scalar Thesis.node[8].nic.mac1609_4 SlotsBackoff 37
scalar Thesis.node[8].nic.mac1609_4 NumInternalContention 0
scalar Thesis.node[8].nic.mac1609_4 totalBusyTime 0.054607
scalar Thesis.node[8].veinsmobility startTime 9
scalar Thesis.node[8].veinsmobility totalTime 116
scalar Thesis.node[8].veinsmobility stopTime 126
scalar Thesis.node[8].veinsmobility minSpeed 0
scalar Thesis.node[8].veinsmobility maxSpeed 12.265322309309
scalar Thesis.node[8].veinsmobility totalDistance 716.74253638838
scalar Thesis.node[8].veinsmobility totalCO2Emission 261.28167619836
scalar Thesis.node[4].appl generatedWSMs 27
scalar Thesis.node[4].appl receivedWSMs 163
scalar Thesis.node[4].appl generatedBSMs 1
scalar Thesis.node[4].appl receivedBSMs 5
scalar Thesis.node[4].appl generatedWSAs 0
scalar Thesis.node[4].appl receivedWSAs 0
scalar Thesis.node[4].nic.phy80211p busyTime 0.00031422950819672
scalar Thesis.node[4].nic.mac1609_4 ReceivedUnicastPackets 0
scalar Thesis.node[4].nic.mac1609_4 ReceivedBroadcasts 168
scalar Thesis.node[4].nic.mac1609_4 SentPackets 28
scalar Thesis.node[4].nic.mac1609_4 SentAcknowledgements 0
scalar Thesis.node[4].nic.mac1609_4 SNIRLostPackets 0
scalar Thesis.node[4].nic.mac1609_4 RXTXLostPackets 0
scalar Thesis.node[4].nic.mac1609_4 TotalLostPackets 0
scalar Thesis.node[4].nic.mac1609_4 DroppedPacketsInMac 0
scalar Thesis.node[4].nic.mac1609_4 TooLittleTime 0
scalar Thesis.node[4].nic.mac1609_4 TimesIntoBackoff 30
scalar Thesis.node[4].nic.mac1609_4 SlotsBackoff 41
scalar Thesis.node[4].nic.mac1609_4 NumInternalContention 0
scalar Thesis.node[4].nic.mac1609_4 totalBusyTime 0.044732
scalar Thesis.node[4].veinsmobility startTime 5
scalar Thesis.node[4].veinsmobility totalTime 121
scalar Thesis.node[4].veinsmobility stopTime 127
scalar Thesis.node[4].veinsmobility minSpeed 2.1134941050378
scalar Thesis.node[4].veinsmobility maxSpeed 11.061335619183
scalar Thesis.node[4].veinsmobility totalDistance 821.21782707708
scalar Thesis.node[4].veinsmobility totalCO2Emission 252.98393952952
scalar Thesis.node[7].appl generatedWSMs 31
scalar Thesis.node[7].appl receivedWSMs 212
scalar Thesis.node[7].appl generatedBSMs 1
scalar Thesis.node[7].appl receivedBSMs 6
scalar Thesis.node[7].appl generatedWSAs 0
scalar Thesis.node[7].appl receivedWSAs 0
scalar Thesis.node[7].nic.phy80211p busyTime 0.00040901587301587
scalar Thesis.node[7].nic.mac1609_4 ReceivedUnicastPackets 0
scalar Thesis.node[7].nic.mac1609_4 ReceivedBroadcasts 218
scalar Thesis.node[7].nic.mac1609_4 SentPackets 32
scalar Thesis.node[7].nic.mac1609_4 SentAcknowledgements 0
scalar Thesis.node[7].nic.mac1609_4 SNIRLostPackets 8
scalar Thesis.node[7].nic.mac1609_4 RXTXLostPackets 1
scalar Thesis.node[7].nic.mac1609_4 TotalLostPackets 9
scalar Thesis.node[7].nic.mac1609_4 DroppedPacketsInMac 0
scalar Thesis.node[7].nic.mac1609_4 TooLittleTime 0
scalar Thesis.node[7].nic.mac1609_4 TimesIntoBackoff 35
scalar Thesis.node[7].nic.mac1609_4 SlotsBackoff 54
scalar Thesis.node[7].nic.mac1609_4 NumInternalContention 0
scalar Thesis.node[7].nic.mac1609_4 totalBusyTime 0.057936
scalar Thesis.node[7].veinsmobility startTime 7
scalar Thesis.node[7].veinsmobility totalTime 125
scalar Thesis.node[7].veinsmobility stopTime 133
scalar Thesis.node[7].veinsmobility minSpeed 0
scalar Thesis.node[7].veinsmobility maxSpeed 20.128553509623
scalar Thesis.node[7].veinsmobility totalDistance 1116.6384530386
scalar Thesis.node[7].veinsmobility totalCO2Emission 370.81428652283
scalar Thesis.node[14].appl generatedWSMs 39
scalar Thesis.node[14].appl receivedWSMs 235
scalar Thesis.node[14].appl generatedBSMs 1
scalar Thesis.node[14].appl receivedBSMs 7
scalar Thesis.node[14].appl generatedWSAs 0
scalar Thesis.node[14].appl receivedWSAs 0
scalar Thesis.node[14].nic.phy80211p busyTime 0.00051150442477876
scalar Thesis.node[14].nic.mac1609_4 ReceivedUnicastPackets 0
scalar Thesis.node[14].nic.mac1609_4 ReceivedBroadcasts 242
scalar Thesis.node[14].nic.mac1609_4 SentPackets 40
scalar Thesis.node[14].nic.mac1609_4 SentAcknowledgements 0
scalar Thesis.node[14].nic.mac1609_4 SNIRLostPackets 11
scalar Thesis.node[14].nic.mac1609_4 RXTXLostPackets 0
scalar Thesis.node[14].nic.mac1609_4 TotalLostPackets 11
scalar Thesis.node[14].nic.mac1609_4 DroppedPacketsInMac 0
scalar Thesis.node[14].nic.mac1609_4 TooLittleTime 0
scalar Thesis.node[14].nic.mac1609_4 TimesIntoBackoff 45
scalar Thesis.node[14].nic.mac1609_4 SlotsBackoff 57
scalar Thesis.node[14].nic.mac1609_4 NumInternalContention 0
scalar Thesis.node[14].nic.mac1609_4 totalBusyTime 0.0656
scalar Thesis.node[14].veinsmobility startTime 23
scalar Thesis.node[14].veinsmobility totalTime 112
scalar Thesis.node[14].veinsmobility stopTime 136
scalar Thesis.node[14].veinsmobility minSpeed 0
scalar Thesis.node[14].veinsmobility maxSpeed 16.506884282042
scalar Thesis.node[14].veinsmobility totalDistance 875.4171314131
scalar Thesis.node[14].veinsmobility totalCO2Emission 301.96042585695
scalar Thesis.node[20].appl generatedWSMs 3
scalar Thesis.node[20].appl receivedWSMs 325
scalar Thesis.node[20].appl generatedBSMs 1
scalar Thesis.node[20].appl receivedBSMs 15
scalar Thesis.node[20].appl generatedWSAs 0
scalar Thesis.node[20].appl receivedWSAs 0
scalar Thesis.node[20].nic.phy80211p busyTime 0.00083696842105263
scalar Thesis.node[20].nic.mac1609_4 ReceivedUnicastPackets 0
scalar Thesis.node[20].nic.mac1609_4 ReceivedBroadcasts 340
scalar Thesis.node[20].nic.mac1609_4 SentPackets 4
scalar Thesis.node[20].nic.mac1609_4 SentAcknowledgements 0
scalar Thesis.node[20].nic.mac1609_4 SNIRLostPackets 11
scalar Thesis.node[20].nic.mac1609_4 RXTXLostPackets 0
scalar Thesis.node[20].nic.mac1609_4 TotalLostPackets 11
scalar Thesis.node[20].nic.mac1609_4 DroppedPacketsInMac 0
scalar Thesis.node[20].nic.mac1609_4 TooLittleTime 0
scalar Thesis.node[20].nic.mac1609_4 TimesIntoBackoff 4
scalar Thesis.node[20].nic.mac1609_4 SlotsBackoff 11
scalar Thesis.node[20].nic.mac1609_4 NumInternalContention 0
scalar Thesis.node[20].nic.mac1609_4 totalBusyTime 0.078924
scalar Thesis.node[20].veinsmobility startTime 49
scalar Thesis.node[20].veinsmobility totalTime 94
scalar Thesis.node[20].veinsmobility stopTime 144
scalar Thesis.node[20].veinsmobility minSpeed 0
scalar Thesis.node[20].veinsmobility maxSpeed 14.683198261043
scalar Thesis.node[20].veinsmobility totalDistance 878.391825108
scalar Thesis.node[20].veinsmobility totalCO2Emission 272.27793226386
scalar Thesis.node[12].appl generatedWSMs 29
scalar Thesis.node[12].appl receivedWSMs 322
scalar Thesis.node[12].appl generatedBSMs 1
scalar Thesis.node[12].appl receivedBSMs 17
scalar Thesis.node[12].appl generatedWSAs 0
scalar Thesis.node[12].appl receivedWSAs 0
scalar Thesis.node[12].nic.phy80211p busyTime 0.00057665671641791
scalar Thesis.node[12].nic.mac1609_4 ReceivedUnicastPackets 0
scalar Thesis.node[12].nic.mac1609_4 ReceivedBroadcasts 339
scalar Thesis.node[12].nic.mac1609_4 SentPackets 30
scalar Thesis.node[12].nic.mac1609_4 SentAcknowledgements 0
scalar Thesis.node[12].nic.mac1609_4 SNIRLostPackets 4
scalar Thesis.node[12].nic.mac1609_4 RXTXLostPackets 0
scalar Thesis.node[12].nic.mac1609_4 TotalLostPackets 4
scalar Thesis.node[12].nic.mac1609_4 DroppedPacketsInMac 0
scalar Thesis.node[12].nic.mac1609_4 TooLittleTime 0
scalar Thesis.node[12].nic.mac1609_4 TimesIntoBackoff 30
scalar Thesis.node[12].nic.mac1609_4 SlotsBackoff 42
scalar Thesis.node[12].nic.mac1609_4 NumInternalContention 0
scalar Thesis.node[12].nic.mac1609_4 totalBusyTime 0.083798
scalar Thesis.node[12].veinsmobility startTime 17
scalar Thesis.node[12].veinsmobility totalTime 133
scalar Thesis.node[12].veinsmobility stopTime 151
scalar Thesis.node[12].veinsmobility minSpeed 0
scalar Thesis.node[12].veinsmobility maxSpeed 19.783047868301
scalar Thesis.node[12].veinsmobility totalDistance 1206.1684826956
scalar Thesis.node[12].veinsmobility totalCO2Emission 436.18874334913
scalar Thesis.node[38].appl generatedWSMs 90
scalar Thesis.node[38].appl receivedWSMs 362
scalar Thesis.node[38].appl generatedBSMs 1
scalar Thesis.node[38].appl receivedBSMs 7
scalar Thesis.node[38].appl generatedWSAs 0
scalar Thesis.node[38].appl receivedWSAs 0
scalar Thesis.node[38].nic.phy80211p busyTime 0.0012144657534247
scalar Thesis.node[38].nic.mac1609_4 ReceivedUnicastPackets 0
scalar Thesis.node[38].nic.mac1609_4 ReceivedBroadcasts 369
scalar Thesis.node[38].nic.mac1609_4 SentPackets 91
scalar Thesis.node[38].nic.mac1609_4 SentAcknowledgements 0
scalar Thesis.node[38].nic.mac1609_4 SNIRLostPackets 17
scalar Thesis.node[38].nic.mac1609_4 RXTXLostPackets 4
scalar Thesis.node[38].nic.mac1609_4 TotalLostPackets 21
scalar Thesis.node[38].nic.mac1609_4 DroppedPacketsInMac 0
scalar Thesis.node[38].nic.mac1609_4 TooLittleTime 0
scalar Thesis.node[38].nic.mac1609_4 TimesIntoBackoff 101
scalar Thesis.node[38].nic.mac1609_4 SlotsBackoff 152
scalar Thesis.node[38].nic.mac1609_4 NumInternalContention 0
scalar Thesis.node[38].nic.mac1609_4 totalBusyTime 0.107411
scalar Thesis.node[38].veinsmobility startTime 89
scalar Thesis.node[38].veinsmobility totalTime 72
scalar Thesis.node[38].veinsmobility stopTime 162
scalar Thesis.node[38].veinsmobility minSpeed 0
scalar Thesis.node[38].veinsmobility maxSpeed 14.299444689486
scalar Thesis.node[38].veinsmobility totalDistance 573.66223795184
scalar Thesis.node[38].veinsmobility totalCO2Emission 193.66564741129
scalar Thesis.node[34].appl generatedWSMs 75
scalar Thesis.node[34].appl receivedWSMs 298
scalar Thesis.node[34].appl generatedBSMs 1
scalar Thesis.node[34].appl receivedBSMs 5
scalar Thesis.node[34].appl generatedWSAs 0
scalar Thesis.node[34].appl receivedWSAs 0
scalar Thesis.node[34].nic.phy80211p busyTime 0.00082731034482759
scalar Thesis.node[34].nic.mac1609_4 ReceivedUnicastPackets 0
scalar Thesis.node[34].nic.mac1609_4 ReceivedBroadcasts 303
scalar Thesis.node[34].nic.mac1609_4 SentPackets 76
scalar Thesis.node[34].nic.mac1609_4 SentAcknowledgements 0
scalar Thesis.node[34].nic.mac1609_4 SNIRLostPackets 10
scalar Thesis.node[34].nic.mac1609_4 RXTXLostPackets 1
scalar Thesis.node[34].nic.mac1609_4 TotalLostPackets 11
scalar Thesis.node[34].nic.mac1609_4 DroppedPacketsInMac 0
scalar Thesis.node[34].nic.mac1609_4 TooLittleTime 0
scalar Thesis.node[34].nic.mac1609_4 TimesIntoBackoff 85
scalar Thesis.node[34].nic.mac1609_4 SlotsBackoff 113
scalar Thesis.node[34].nic.mac1609_4 NumInternalContention 0
scalar Thesis.node[34].nic.mac1609_4 totalBusyTime 0.088396
scalar Thesis.node[34].veinsmobility startTime 81
scalar Thesis.node[34].veinsmobility totalTime 86
scalar Thesis.node[34].veinsmobility stopTime 168
scalar Thesis.node[34].veinsmobility minSpeed 2.5533851011719
scalar Thesis.node[34].veinsmobility maxSpeed 18.799394710121
scalar Thesis.node[34].veinsmobility totalDistance 877.99101423538
scalar Thesis.node[34].veinsmobility totalCO2Emission 331.24905015571
scalar Thesis.node[36].appl generatedWSMs 66
scalar Thesis.node[36].appl receivedWSMs 328
scalar Thesis.node[36].appl generatedBSMs 1
scalar Thesis.node[36].appl receivedBSMs 11
scalar Thesis.node[36].appl generatedWSAs 0
scalar Thesis.node[36].appl receivedWSAs 0
scalar Thesis.node[36].nic.phy80211p busyTime 0.0010489777777778
scalar Thesis.node[36].nic.mac1609_4 ReceivedUnicastPackets 0
scalar Thesis.node[36].nic.mac1609_4 ReceivedBroadcasts 339
scalar Thesis.node[36].nic.mac1609_4 SentPackets 67
scalar Thesis.node[36].nic.mac1609_4 SentAcknowledgements 0
scalar Thesis.node[36].nic.mac1609_4 SNIRLostPackets 73
scalar Thesis.node[36].nic.mac1609_4 RXTXLostPackets 3
scalar Thesis.node[36].nic.mac1609_4 TotalLostPackets 76
scalar Thesis.node[36].nic.mac1609_4 DroppedPacketsInMac 0
scalar Thesis.node[36].nic.mac1609_4 TooLittleTime 0
scalar Thesis.node[36].nic.mac1609_4 TimesIntoBackoff 74
scalar Thesis.node[36].nic.mac1609_4 SlotsBackoff 111
scalar Thesis.node[36].nic.mac1609_4 NumInternalContention 0
scalar Thesis.node[36].nic.mac1609_4 totalBusyTime 0.101307
scalar Thesis.node[36].veinsmobility startTime 85
scalar Thesis.node[36].veinsmobility totalTime 89
scalar Thesis.node[36].veinsmobility stopTime 175
scalar Thesis.node[36].veinsmobility minSpeed 0
scalar Thesis.node[36].veinsmobility maxSpeed 11.702314377772
scalar Thesis.node[36].veinsmobility totalDistance 631.20804630072
scalar Thesis.node[36].veinsmobility totalCO2Emission 188.58611933404
scalar Thesis.node[42].appl generatedWSMs 32
scalar Thesis.node[42].appl receivedWSMs 252
scalar Thesis.node[42].appl generatedBSMs 1
scalar Thesis.node[42].appl receivedBSMs 9
scalar Thesis.node[42].appl generatedWSAs 0
scalar Thesis.node[42].appl receivedWSAs 0
scalar Thesis.node[42].nic.phy80211p busyTime 0.00079594936708861
scalar Thesis.node[42].nic.mac1609_4 ReceivedUnicastPackets 0
scalar Thesis.node[42].nic.mac1609_4 ReceivedBroadcasts 261
scalar Thesis.node[42].nic.mac1609_4 SentPackets 33
scalar Thesis.node[42].nic.mac1609_4 SentAcknowledgements 0
scalar Thesis.node[42].nic.mac1609_4 SNIRLostPackets 15
scalar Thesis.node[42].nic.mac1609_4 RXTXLostPackets 0
scalar Thesis.node[42].nic.mac1609_4 TotalLostPackets 15
scalar Thesis.node[42].nic.mac1609_4 DroppedPacketsInMac 0
scalar Thesis.node[42].nic.mac1609_4 TooLittleTime 0
scalar Thesis.node[42].nic.mac1609_4 TimesIntoBackoff 40
scalar Thesis.node[42].nic.mac1609_4 SlotsBackoff 58
scalar Thesis.node[42].nic.mac1609_4 NumInternalContention 0
scalar Thesis.node[42].nic.mac1609_4 totalBusyTime 0.068572719505
scalar Thesis.node[42].veinsmobility startTime 99
scalar Thesis.node[42].veinsmobility totalTime 78
scalar Thesis.node[42].veinsmobility stopTime 178
scalar Thesis.node[42].veinsmobility minSpeed 0
scalar Thesis.node[42].veinsmobility maxSpeed 19.978635574667
scalar Thesis.node[42].veinsmobility totalDistance 746.77884468346
scalar Thesis.node[42].veinsmobility totalCO2Emission 251.41878287382
scalar Thesis.node[9].appl generatedWSMs 18
scalar Thesis.node[9].appl receivedWSMs 370
scalar Thesis.node[9].appl generatedBSMs 1
scalar Thesis.node[9].appl receivedBSMs 24
scalar Thesis.node[9].appl generatedWSAs 0
scalar Thesis.node[9].appl receivedWSAs 0
scalar Thesis.node[9].nic.phy80211p busyTime 0.0005309349112426
scalar Thesis.node[9].nic.mac1609_4 ReceivedUnicastPackets 0
scalar Thesis.node[9].nic.mac1609_4 ReceivedBroadcasts 394
scalar Thesis.node[9].nic.mac1609_4 SentPackets 19
scalar Thesis.node[9].nic.mac1609_4 SentAcknowledgements 0
scalar Thesis.node[9].nic.mac1609_4 SNIRLostPackets 6
scalar Thesis.node[9].nic.mac1609_4 RXTXLostPackets 0
scalar Thesis.node[9].nic.mac1609_4 TotalLostPackets 6
scalar Thesis.node[9].nic.mac1609_4 DroppedPacketsInMac 0
scalar Thesis.node[9].nic.mac1609_4 TooLittleTime 0
scalar Thesis.node[9].nic.mac1609_4 TimesIntoBackoff 20
scalar Thesis.node[9].nic.mac1609_4 SlotsBackoff 33
scalar Thesis.node[9].nic.mac1609_4 NumInternalContention 0
scalar Thesis.node[9].nic.mac1609_4 totalBusyTime 0.093331
scalar Thesis.node[9].veinsmobility startTime 11
scalar Thesis.node[9].veinsmobility totalTime 168
scalar Thesis.node[9].veinsmobility stopTime 180
scalar Thesis.node[9].veinsmobility minSpeed 0
scalar Thesis.node[9].veinsmobility maxSpeed 16.049310768391
scalar Thesis.node[9].veinsmobility totalDistance 1450.3563629731
scalar Thesis.node[9].veinsmobility totalCO2Emission 537.72023363807
scalar Thesis.node[33].appl generatedWSMs 17
scalar Thesis.node[33].appl receivedWSMs 177
scalar Thesis.node[33].appl generatedBSMs 1
scalar Thesis.node[33].appl receivedBSMs 12
scalar Thesis.node[33].appl generatedWSAs 0
scalar Thesis.node[33].appl receivedWSAs 0
scalar Thesis.node[33].nic.phy80211p busyTime 0.00040354716981132
scalar Thesis.node[33].nic.mac1609_4 ReceivedUnicastPackets 0
scalar Thesis.node[33].nic.mac1609_4 ReceivedBroadcasts 189
scalar Thesis.node[33].nic.mac1609_4 SentPackets 18
scalar Thesis.node[33].nic.mac1609_4 SentAcknowledgements 0
scalar Thesis.node[33].nic.mac1609_4 SNIRLostPackets 2
scalar Thesis.node[33].nic.mac1609_4 RXTXLostPackets 0
scalar Thesis.node[33].nic.mac1609_4 TotalLostPackets 2
scalar Thesis.node[33].nic.mac1609_4 DroppedPacketsInMac 0
scalar Thesis.node[33].nic.mac1609_4 TooLittleTime 0
scalar Thesis.node[33].nic.mac1609_4 TimesIntoBackoff 18
scalar Thesis.node[33].nic.mac1609_4 SlotsBackoff 29
scalar Thesis.node[33].nic.mac1609_4 NumInternalContention 0
scalar Thesis.node[33].nic.mac1609_4 totalBusyTime 0.04661
scalar Thesis.node[33].veinsmobility startTime 79
scalar Thesis.node[33].veinsmobility totalTime 105
scalar Thesis.node[33].veinsmobility stopTime 185
scalar Thesis.node[33].veinsmobility minSpeed 2.1135284113432
scalar Thesis.node[33].veinsmobility maxSpeed 18.149131614294
scalar Thesis.node[33].veinsmobility totalDistance 994.33970114605
scalar Thesis.node[33].veinsmobility totalCO2Emission 354.75390367484
scalar Thesis.node[11].appl generatedWSMs 8
scalar Thesis.node[11].appl receivedWSMs 252
scalar Thesis.node[11].appl generatedBSMs 1
scalar Thesis.node[11].appl receivedBSMs 13
scalar Thesis.node[11].appl generatedWSAs 0
scalar Thesis.node[11].appl receivedWSAs 0
scalar Thesis.node[11].nic.phy80211p busyTime 0.00033954098360656
scalar Thesis.node[11].nic.mac1609_4 ReceivedUnicastPackets 0
scalar Thesis.node[11].nic.mac1609_4 ReceivedBroadcasts 265
scalar Thesis.node[11].nic.mac1609_4 SentPackets 9
scalar Thesis.node[11].nic.mac1609_4 SentAcknowledgements 0
scalar Thesis.node[11].nic.mac1609_4 SNIRLostPackets 9
scalar Thesis.node[11].nic.mac1609_4 RXTXLostPackets 1
scalar Thesis.node[11].nic.mac1609_4 TotalLostPackets 10
scalar Thesis.node[11].nic.mac1609_4 DroppedPacketsInMac 0
scalar Thesis.node[11].nic.mac1609_4 TooLittleTime 0
scalar Thesis.node[11].nic.mac1609_4 TimesIntoBackoff 11
scalar Thesis.node[11].nic.mac1609_4 SlotsBackoff 18
scalar Thesis.node[11].nic.mac1609_4 NumInternalContention 0
scalar Thesis.node[11].nic.mac1609_4 totalBusyTime 0.062945
scalar Thesis.node[11].veinsmobility startTime 15
scalar Thesis.node[11].veinsmobility totalTime 182
scalar Thesis.node[11].veinsmobility stopTime 198
scalar Thesis.node[11].veinsmobility minSpeed 0
scalar Thesis.node[11].veinsmobility maxSpeed 13.986373998727
scalar Thesis.node[11].veinsmobility totalDistance 1194.376223554
scalar Thesis.node[11].veinsmobility totalCO2Emission 366.33545170465
scalar Thesis.node[30].appl generatedWSMs 15
scalar Thesis.node[30].appl receivedWSMs 360
scalar Thesis.node[30].appl generatedBSMs 1
scalar Thesis.node[30].appl receivedBSMs 11
scalar Thesis.node[30].appl generatedWSAs 0
scalar Thesis.node[30].appl receivedWSAs 0
scalar Thesis.node[30].nic.phy80211p busyTime 0.00067429457364341
scalar Thesis.node[30].nic.mac1609_4 ReceivedUnicastPackets 0
scalar Thesis.node[30].nic.mac1609_4 ReceivedBroadcasts 371
scalar Thesis.node[30].nic.mac1609_4 SentPackets 16
scalar Thesis.node[30].nic.mac1609_4 SentAcknowledgements 0
scalar Thesis.node[30].nic.mac1609_4 SNIRLostPackets 10
scalar Thesis.node[30].nic.mac1609_4 RXTXLostPackets 0
scalar Thesis.node[30].nic.mac1609_4 TotalLostPackets 10
scalar Thesis.node[30].nic.mac1609_4 DroppedPacketsInMac 0
scalar Thesis.node[30].nic.mac1609_4 TooLittleTime 0
scalar Thesis.node[30].nic.mac1609_4 TimesIntoBackoff 16
scalar Thesis.node[30].nic.mac1609_4 SlotsBackoff 20
scalar Thesis.node[30].nic.mac1609_4 NumInternalContention 0
scalar Thesis.node[30].nic.mac1609_4 totalBusyTime 0.089424
scalar Thesis.node[30].veinsmobility startTime 69
scalar Thesis.node[30].veinsmobility totalTime 128
scalar Thesis.node[30].veinsmobility stopTime 198
scalar Thesis.node[30].veinsmobility minSpeed 0
scalar Thesis.node[30].veinsmobility maxSpeed 24.062500947901
scalar Thesis.node[30].veinsmobility totalDistance 950.84704338837
scalar Thesis.node[30].veinsmobility totalCO2Emission 342.94719863063
scalar Thesis.node[16].appl generatedWSMs 42
scalar Thesis.node[16].appl receivedWSMs 382
scalar Thesis.node[16].appl generatedBSMs 1
scalar Thesis.node[16].appl receivedBSMs 16
scalar Thesis.node[16].appl generatedWSAs 0
scalar Thesis.node[16].appl receivedWSAs 0
scalar Thesis.node[16].nic.phy80211p busyTime 0.00053416091954023
scalar Thesis.node[16].nic.mac1609_4 ReceivedUnicastPackets 0
scalar Thesis.node[16].nic.mac1609_4 ReceivedBroadcasts 398
scalar Thesis.node[16].nic.mac1609_4 SentPackets 43
scalar Thesis.node[16].nic.mac1609_4 SentAcknowledgements 0
scalar Thesis.node[16].nic.mac1609_4 SNIRLostPackets 12
scalar Thesis.node[16].nic.mac1609_4 RXTXLostPackets 0
scalar Thesis.node[16].nic.mac1609_4 TotalLostPackets 12
scalar Thesis.node[16].nic.mac1609_4 DroppedPacketsInMac 0
scalar Thesis.node[16].nic.mac1609_4 TooLittleTime 0
scalar Thesis.node[16].nic.mac1609_4 TimesIntoBackoff 46
scalar Thesis.node[16].nic.mac1609_4 SlotsBackoff 63
scalar Thesis.node[16].nic.mac1609_4 NumInternalContention 0
scalar Thesis.node[16].nic.mac1609_4 totalBusyTime 0.101211
scalar Thesis.node[16].veinsmobility startTime 33
scalar Thesis.node[16].veinsmobility totalTime 173
scalar Thesis.node[16].veinsmobility stopTime 207
scalar Thesis.node[16].veinsmobility minSpeed 0
scalar Thesis.node[16].veinsmobility maxSpeed 16.919508905954
scalar Thesis.node[16].veinsmobility totalDistance 1496.8222165604
scalar Thesis.node[16].veinsmobility totalCO2Emission 480.58810493522
scalar Thesis.node[23].appl generatedWSMs 29
scalar Thesis.node[23].appl receivedWSMs 433
scalar Thesis.node[23].appl generatedBSMs 1
scalar Thesis.node[23].appl receivedBSMs 18
scalar Thesis.node[23].appl generatedWSAs 0
scalar Thesis.node[23].appl receivedWSAs 0
scalar Thesis.node[23].nic.phy80211p busyTime 0.00069830065359477
scalar Thesis.node[23].nic.mac1609_4 ReceivedUnicastPackets 0
scalar Thesis.node[23].nic.mac1609_4 ReceivedBroadcasts 451
scalar Thesis.node[23].nic.mac1609_4 SentPackets 30
scalar Thesis.node[23].nic.mac1609_4 SentAcknowledgements 0
scalar Thesis.node[23].nic.mac1609_4 SNIRLostPackets 20
scalar Thesis.node[23].nic.mac1609_4 RXTXLostPackets 1
scalar Thesis.node[23].nic.mac1609_4 TotalLostPackets 21
scalar Thesis.node[23].nic.mac1609_4 DroppedPacketsInMac 0
scalar Thesis.node[23].nic.mac1609_4 TooLittleTime 0
scalar Thesis.node[23].nic.mac1609_4 TimesIntoBackoff 35
scalar Thesis.node[23].nic.mac1609_4 SlotsBackoff 52
scalar Thesis.node[23].nic.mac1609_4 NumInternalContention 0
scalar Thesis.node[23].nic.mac1609_4 totalBusyTime 0.111614
scalar Thesis.node[23].veinsmobility startTime 55
scalar Thesis.node[23].veinsmobility totalTime 152
scalar Thesis.node[23].veinsmobility stopTime 208
scalar Thesis.node[23].veinsmobility minSpeed 0
scalar Thesis.node[23].veinsmobility maxSpeed 16.958168634095
scalar Thesis.node[23].veinsmobility totalDistance 1184.2675984901
scalar Thesis.node[23].veinsmobility totalCO2Emission 388.91946737464
scalar Thesis.node[21].appl generatedWSMs 6
scalar Thesis.node[21].appl receivedWSMs 298
scalar Thesis.node[21].appl generatedBSMs 1
scalar Thesis.node[21].appl receivedBSMs 14
scalar Thesis.node[21].appl generatedWSAs 0
scalar Thesis.node[21].appl receivedWSAs 0
scalar Thesis.node[21].nic.phy80211p busyTime 0.00043966863905326
scalar Thesis.node[21].nic.mac1609_4 ReceivedUnicastPackets 0
scalar Thesis.node[21].nic.mac1609_4 ReceivedBroadcasts 312
scalar Thesis.node[21].nic.mac1609_4 SentPackets 7
scalar Thesis.node[21].nic.mac1609_4 SentAcknowledgements 0
scalar Thesis.node[21].nic.mac1609_4 SNIRLostPackets 16
scalar Thesis.node[21].nic.mac1609_4 RXTXLostPackets 0
scalar Thesis.node[21].nic.mac1609_4 TotalLostPackets 16
scalar Thesis.node[21].nic.mac1609_4 DroppedPacketsInMac 0
scalar Thesis.node[21].nic.mac1609_4 TooLittleTime 0
scalar Thesis.node[21].nic.mac1609_4 TimesIntoBackoff 7
scalar Thesis.node[21].nic.mac1609_4 SlotsBackoff 13
scalar Thesis.node[21].nic.mac1609_4 NumInternalContention 0
scalar Thesis.node[21].nic.mac1609_4 totalBusyTime 0.073719
scalar Thesis.node[21].veinsmobility startTime 51
scalar Thesis.node[21].veinsmobility totalTime 168
scalar Thesis.node[21].veinsmobility stopTime 220
scalar Thesis.node[21].veinsmobility minSpeed 0
scalar Thesis.node[21].veinsmobility maxSpeed 18.172348327473
scalar Thesis.node[21].veinsmobility totalDistance 992.23684670681
scalar Thesis.node[21].veinsmobility totalCO2Emission 346.64858257993
scalar Thesis.node[29].appl generatedWSMs 15
scalar Thesis.node[29].appl receivedWSMs 495
scalar Thesis.node[29].appl generatedBSMs 1
scalar Thesis.node[29].appl receivedBSMs 17
scalar Thesis.node[29].appl generatedWSAs 0
scalar Thesis.node[29].appl receivedWSAs 0
scalar Thesis.node[29].nic.phy80211p busyTime 0.00083014193548387
scalar Thesis.node[29].nic.mac1609_4 ReceivedUnicastPackets 0
scalar Thesis.node[29].nic.mac1609_4 ReceivedBroadcasts 512
scalar Thesis.node[29].nic.mac1609_4 SentPackets 16
scalar Thesis.node[29].nic.mac1609_4 SentAcknowledgements 0
scalar Thesis.node[29].nic.mac1609_4 SNIRLostPackets 52
scalar Thesis.node[29].nic.mac1609_4 RXTXLostPackets 0
scalar Thesis.node[29].nic.mac1609_4 TotalLostPackets 52
scalar Thesis.node[29].nic.mac1609_4 DroppedPacketsInMac 0
scalar Thesis.node[29].nic.mac1609_4 TooLittleTime 0
scalar Thesis.node[29].nic.mac1609_4 TimesIntoBackoff 16
scalar Thesis.node[29].nic.mac1609_4 SlotsBackoff 23
scalar Thesis.node[29].nic.mac1609_4 NumInternalContention 0
scalar Thesis.node[29].nic.mac1609_4 totalBusyTime 0.124384
scalar Thesis.node[29].veinsmobility startTime 67
scalar Thesis.node[29].veinsmobility totalTime 154
scalar Thesis.node[29].veinsmobility stopTime 222
scalar Thesis.node[29].veinsmobility minSpeed 0
scalar Thesis.node[29].veinsmobility maxSpeed 15.070804111276
scalar Thesis.node[29].veinsmobility totalDistance 1106.6822717578
scalar Thesis.node[29].veinsmobility totalCO2Emission 358.10899570079
scalar Thesis.node[32].appl generatedWSMs 14
scalar Thesis.node[32].appl receivedWSMs 169
scalar Thesis.node[32].appl generatedBSMs 1
scalar Thesis.node[32].appl receivedBSMs 14
scalar Thesis.node[32].appl generatedWSAs 0
scalar Thesis.node[32].appl receivedWSAs 0
scalar Thesis.node[32].nic.phy80211p busyTime 0.00027109333333333
scalar Thesis.node[32].nic.mac1609_4 ReceivedUnicastPackets 0
scalar Thesis.node[32].nic.mac1609_4 ReceivedBroadcasts 183
scalar Thesis.node[32].nic.mac1609_4 SentPackets 15
scalar Thesis.node[32].nic.mac1609_4 SentAcknowledgements 0
scalar Thesis.node[32].nic.mac1609_4 SNIRLostPackets 0
scalar Thesis.node[32].nic.mac1609_4 RXTXLostPackets 0
scalar Thesis.node[32].nic.mac1609_4 TotalLostPackets 0
scalar Thesis.node[32].nic.mac1609_4 DroppedPacketsInMac 0
scalar Thesis.node[32].nic.mac1609_4 TooLittleTime 0
scalar Thesis.node[32].nic.mac1609_4 TimesIntoBackoff 18
scalar Thesis.node[32].nic.mac1609_4 SlotsBackoff 31
scalar Thesis.node[32].nic.mac1609_4 NumInternalContention 0
scalar Thesis.node[32].nic.mac1609_4 totalBusyTime 0.044031
scalar Thesis.node[32].veinsmobility startTime 75
scalar Thesis.node[32].veinsmobility totalTime 149
scalar Thesis.node[32].veinsmobility stopTime 225
scalar Thesis.node[32].veinsmobility minSpeed 0
scalar Thesis.node[32].veinsmobility maxSpeed 20.128475269518
scalar Thesis.node[32].veinsmobility totalDistance 1463.4149417294
scalar Thesis.node[32].veinsmobility totalCO2Emission 465.31475441331
scalar Thesis.node[19].appl generatedWSMs 6
scalar Thesis.node[19].appl receivedWSMs 171
scalar Thesis.node[19].appl generatedBSMs 1
scalar Thesis.node[19].appl receivedBSMs 13
scalar Thesis.node[19].appl generatedWSAs 0
scalar Thesis.node[19].appl receivedWSAs 0
scalar Thesis.node[19].nic.phy80211p busyTime 0.00022175135135135
scalar Thesis.node[19].nic.mac1609_4 ReceivedUnicastPackets 0
scalar Thesis.node[19].nic.mac1609_4 ReceivedBroadcasts 184
scalar Thesis.node[19].nic.mac1609_4 SentPackets 7
scalar Thesis.node[19].nic.mac1609_4 SentAcknowledgements 0
scalar Thesis.node[19].nic.mac1609_4 SNIRLostPackets 0
scalar Thesis.node[19].nic.mac1609_4 RXTXLostPackets 0
scalar Thesis.node[19].nic.mac1609_4 TotalLostPackets 0
scalar Thesis.node[19].nic.mac1609_4 DroppedPacketsInMac 0
scalar Thesis.node[19].nic.mac1609_4 TooLittleTime 0
scalar Thesis.node[19].nic.mac1609_4 TimesIntoBackoff 7
scalar Thesis.node[19].nic.mac1609_4 SlotsBackoff 14
scalar Thesis.node[19].nic.mac1609_4 NumInternalContention 0
scalar Thesis.node[19].nic.mac1609_4 totalBusyTime 0.042527
scalar Thesis.node[19].veinsmobility startTime 45
scalar Thesis.node[19].veinsmobility totalTime 184
scalar Thesis.node[19].veinsmobility stopTime 230
scalar Thesis.node[19].veinsmobility minSpeed 0
scalar Thesis.node[19].veinsmobility maxSpeed 16.263037646314
scalar Thesis.node[19].veinsmobility totalDistance 1370.9019951452
scalar Thesis.node[19].veinsmobility totalCO2Emission 489.28846866533
scalar Thesis.node[59].appl generatedWSMs 1
scalar Thesis.node[59].appl receivedWSMs 250
scalar Thesis.node[59].appl generatedBSMs 1
scalar Thesis.node[59].appl receivedBSMs 13
scalar Thesis.node[59].appl generatedWSAs 0
scalar Thesis.node[59].appl receivedWSAs 0
scalar Thesis.node[59].nic.phy80211p busyTime 0.00066658333333334
scalar Thesis.node[59].nic.mac1609_4 ReceivedUnicastPackets 0
scalar Thesis.node[59].nic.mac1609_4 ReceivedBroadcasts 263
scalar Thesis.node[59].nic.mac1609_4 SentPackets 2
scalar Thesis.node[59].nic.mac1609_4 SentAcknowledgements 0
scalar Thesis.node[59].nic.mac1609_4 SNIRLostPackets 20
scalar Thesis.node[59].nic.mac1609_4 RXTXLostPackets 0
scalar Thesis.node[59].nic.mac1609_4 TotalLostPackets 20
scalar Thesis.node[59].nic.mac1609_4 DroppedPacketsInMac 0
scalar Thesis.node[59].nic.mac1609_4 TooLittleTime 0
scalar Thesis.node[59].nic.mac1609_4 TimesIntoBackoff 2
scalar Thesis.node[59].nic.mac1609_4 SlotsBackoff 2
scalar Thesis.node[59].nic.mac1609_4 NumInternalContention 0
scalar Thesis.node[59].nic.mac1609_4 totalBusyTime 0.06201
scalar Thesis.node[59].veinsmobility startTime 138
scalar Thesis.node[59].veinsmobility totalTime 95
scalar Thesis.node[59].veinsmobility stopTime 234
scalar Thesis.node[59].veinsmobility minSpeed 0
scalar Thesis.node[59].veinsmobility maxSpeed 15.184599748866
scalar Thesis.node[59].veinsmobility totalDistance 848.00489251435
scalar Thesis.node[59].veinsmobility totalCO2Emission 283.23885286929
scalar Thesis.node[1].appl generatedWSMs 4
scalar Thesis.node[1].appl receivedWSMs 315
scalar Thesis.node[1].appl generatedBSMs 1
scalar Thesis.node[1].appl receivedBSMs 16
scalar Thesis.node[1].appl generatedWSAs 0
scalar Thesis.node[1].appl receivedWSAs 0
scalar Thesis.node[1].nic.phy80211p busyTime 0.00032278111587983
scalar Thesis.node[1].nic.mac1609_4 ReceivedUnicastPackets 0
scalar Thesis.node[1].nic.mac1609_4 ReceivedBroadcasts 331
scalar Thesis.node[1].nic.mac1609_4 SentPackets 5
scalar Thesis.node[1].nic.mac1609_4 SentAcknowledgements 0
scalar Thesis.node[1].nic.mac1609_4 SNIRLostPackets 2
scalar Thesis.node[1].nic.mac1609_4 RXTXLostPackets 0
scalar Thesis.node[1].nic.mac1609_4 TotalLostPackets 2
scalar Thesis.node[1].nic.mac1609_4 DroppedPacketsInMac 0
scalar Thesis.node[1].nic.mac1609_4 TooLittleTime 0
scalar Thesis.node[1].nic.mac1609_4 TimesIntoBackoff 5
scalar Thesis.node[1].nic.mac1609_4 SlotsBackoff 8
scalar Thesis.node[1].nic.mac1609_4 NumInternalContention 0
scalar Thesis.node[1].nic.mac1609_4 totalBusyTime 0.076013
scalar Thesis.node[1].veinsmobility startTime 3
scalar Thesis.node[1].veinsmobility totalTime 232
scalar Thesis.node[1].veinsmobility stopTime 236
scalar Thesis.node[1].veinsmobility minSpeed 0
scalar Thesis.node[1].veinsmobility maxSpeed 15.63557043041
scalar Thesis.node[1].veinsmobility totalDistance 1395.1195433945
scalar Thesis.node[1].veinsmobility totalCO2Emission 513.81480995549
scalar Thesis.node[83].appl generatedWSMs 0
scalar Thesis.node[83].appl receivedWSMs 0
scalar Thesis.node[83].appl generatedBSMs 0
scalar Thesis.node[83].appl receivedBSMs 0
scalar Thesis.node[83].appl generatedWSAs 0
scalar Thesis.node[83].appl receivedWSAs 0
scalar Thesis.node[83].nic.phy80211p busyTime 0
scalar Thesis.node[83].nic.mac1609_4 ReceivedUnicastPackets 0
scalar Thesis.node[83].nic.mac1609_4 ReceivedBroadcasts 0
scalar Thesis.node[83].nic.mac1609_4 SentPackets 0
scalar Thesis.node[83].nic.mac1609_4 SentAcknowledgements 0
scalar Thesis.node[83].nic.mac1609_4 SNIRLostPackets 0
scalar Thesis.node[83].nic.mac1609_4 RXTXLostPackets 0
scalar Thesis.node[83].nic.mac1609_4 TotalLostPackets 0
scalar Thesis.node[83].nic.mac1609_4 DroppedPacketsInMac 0
scalar Thesis.node[83].nic.mac1609_4 TooLittleTime 0
scalar Thesis.node[83].nic.mac1609_4 TimesIntoBackoff 0
scalar Thesis.node[83].nic.mac1609_4 SlotsBackoff 0
scalar Thesis.node[83].nic.mac1609_4 NumInternalContention 0
scalar Thesis.node[83].nic.mac1609_4 totalBusyTime 0
scalar Thesis.node[83].veinsmobility startTime 192
scalar Thesis.node[83].veinsmobility totalTime 45
scalar Thesis.node[83].veinsmobility stopTime 238
scalar Thesis.node[83].veinsmobility minSpeed 1.0308134227984
scalar Thesis.node[83].veinsmobility maxSpeed 15.286910679725
scalar Thesis.node[83].veinsmobility totalDistance 403.19878643773
scalar Thesis.node[83].veinsmobility totalCO2Emission 153.7250338586
scalar Thesis.node[24].appl generatedWSMs 5
scalar Thesis.node[24].appl receivedWSMs 277
scalar Thesis.node[24].appl generatedBSMs 1
scalar Thesis.node[24].appl receivedBSMs 20
scalar Thesis.node[24].appl generatedWSAs 0
scalar Thesis.node[24].appl receivedWSAs 0
scalar Thesis.node[24].nic.phy80211p busyTime 0.00037415053763441
scalar Thesis.node[24].nic.mac1609_4 ReceivedUnicastPackets 0
scalar Thesis.node[24].nic.mac1609_4 ReceivedBroadcasts 297
scalar Thesis.node[24].nic.mac1609_4 SentPackets 6
scalar Thesis.node[24].nic.mac1609_4 SentAcknowledgements 0
scalar Thesis.node[24].nic.mac1609_4 SNIRLostPackets 14
scalar Thesis.node[24].nic.mac1609_4 RXTXLostPackets 0
scalar Thesis.node[24].nic.mac1609_4 TotalLostPackets 14
scalar Thesis.node[24].nic.mac1609_4 DroppedPacketsInMac 0
scalar Thesis.node[24].nic.mac1609_4 TooLittleTime 0
scalar Thesis.node[24].nic.mac1609_4 TimesIntoBackoff 6
scalar Thesis.node[24].nic.mac1609_4 SlotsBackoff 3
scalar Thesis.node[24].nic.mac1609_4 NumInternalContention 0
scalar Thesis.node[24].nic.mac1609_4 totalBusyTime 0.069238
scalar Thesis.node[24].veinsmobility startTime 57
scalar Thesis.node[24].veinsmobility totalTime 185
scalar Thesis.node[24].veinsmobility stopTime 243
scalar Thesis.node[24].veinsmobility minSpeed 0
scalar Thesis.node[24].veinsmobility maxSpeed 16.431600307215
scalar Thesis.node[24].veinsmobility totalDistance 1469.9855354874
scalar Thesis.node[24].veinsmobility totalCO2Emission 528.12394918954
scalar Thesis.node[25].appl generatedWSMs 25
scalar Thesis.node[25].appl receivedWSMs 436
scalar Thesis.node[25].appl generatedBSMs 1
scalar Thesis.node[25].appl receivedBSMs 22
scalar Thesis.node[25].appl generatedWSAs 0
scalar Thesis.node[25].appl receivedWSAs 0
scalar Thesis.node[25].nic.phy80211p busyTime 0.00054
scalar Thesis.node[25].nic.mac1609_4 ReceivedUnicastPackets 0
scalar Thesis.node[25].nic.mac1609_4 ReceivedBroadcasts 458
scalar Thesis.node[25].nic.mac1609_4 SentPackets 26
scalar Thesis.node[25].nic.mac1609_4 SentAcknowledgements 0
scalar Thesis.node[25].nic.mac1609_4 SNIRLostPackets 15
scalar Thesis.node[25].nic.mac1609_4 RXTXLostPackets 0
scalar Thesis.node[25].nic.mac1609_4 TotalLostPackets 15
scalar Thesis.node[25].nic.mac1609_4 DroppedPacketsInMac 0
scalar Thesis.node[25].nic.mac1609_4 TooLittleTime 0
scalar Thesis.node[25].nic.mac1609_4 TimesIntoBackoff 26
scalar Thesis.node[25].nic.mac1609_4 SlotsBackoff 38
scalar Thesis.node[25].nic.mac1609_4 NumInternalContention 0
scalar Thesis.node[25].nic.mac1609_4 totalBusyTime 0.110762
scalar Thesis.node[25].veinsmobility startTime 59
scalar Thesis.node[25].veinsmobility totalTime 197
scalar Thesis.node[25].veinsmobility stopTime 257
scalar Thesis.node[25].veinsmobility minSpeed 0
scalar Thesis.node[25].veinsmobility maxSpeed 20.638298159769
scalar Thesis.node[25].veinsmobility totalDistance 1852.4676574593
scalar Thesis.node[25].veinsmobility totalCO2Emission 560.23839975639
scalar Thesis.node[64].appl generatedWSMs 0
scalar Thesis.node[64].appl receivedWSMs 15
scalar Thesis.node[64].appl generatedBSMs 0
scalar Thesis.node[64].appl receivedBSMs 0
scalar Thesis.node[64].appl generatedWSAs 0
scalar Thesis.node[64].appl receivedWSAs 0
scalar Thesis.node[64].nic.phy80211p busyTime 3.2222222222222e-005
scalar Thesis.node[64].nic.mac1609_4 ReceivedUnicastPackets 0
scalar Thesis.node[64].nic.mac1609_4 ReceivedBroadcasts 15
scalar Thesis.node[64].nic.mac1609_4 SentPackets 0
scalar Thesis.node[64].nic.mac1609_4 SentAcknowledgements 0
scalar Thesis.node[64].nic.mac1609_4 SNIRLostPackets 0
scalar Thesis.node[64].nic.mac1609_4 RXTXLostPackets 0
scalar Thesis.node[64].nic.mac1609_4 TotalLostPackets 0
scalar Thesis.node[64].nic.mac1609_4 DroppedPacketsInMac 0
scalar Thesis.node[64].nic.mac1609_4 TooLittleTime 0
scalar Thesis.node[64].nic.mac1609_4 TimesIntoBackoff 0
scalar Thesis.node[64].nic.mac1609_4 SlotsBackoff 0
scalar Thesis.node[64].nic.mac1609_4 NumInternalContention 0
scalar Thesis.node[64].nic.mac1609_4 totalBusyTime 0.00348
scalar Thesis.node[64].veinsmobility startTime 150
scalar Thesis.node[64].veinsmobility totalTime 107
scalar Thesis.node[64].veinsmobility stopTime 258
scalar Thesis.node[64].veinsmobility minSpeed 2.9403928545876
scalar Thesis.node[64].veinsmobility maxSpeed 11.274080351627
scalar Thesis.node[64].veinsmobility totalDistance 909.66879078733
scalar Thesis.node[64].veinsmobility totalCO2Emission 252.78952344978
scalar Thesis.node[17].appl generatedWSMs 40
scalar Thesis.node[17].appl receivedWSMs 395
scalar Thesis.node[17].appl generatedBSMs 1
scalar Thesis.node[17].appl receivedBSMs 25
scalar Thesis.node[17].appl generatedWSAs 0
scalar Thesis.node[17].appl receivedWSAs 0
scalar Thesis.node[17].nic.phy80211p busyTime 0.00043495495495495
scalar Thesis.node[17].nic.mac1609_4 ReceivedUnicastPackets 0
scalar Thesis.node[17].nic.mac1609_4 ReceivedBroadcasts 420
scalar Thesis.node[17].nic.mac1609_4 SentPackets 41
scalar Thesis.node[17].nic.mac1609_4 SentAcknowledgements 0
scalar Thesis.node[17].nic.mac1609_4 SNIRLostPackets 10
scalar Thesis.node[17].nic.mac1609_4 RXTXLostPackets 1
scalar Thesis.node[17].nic.mac1609_4 TotalLostPackets 11
scalar Thesis.node[17].nic.mac1609_4 DroppedPacketsInMac 0
scalar Thesis.node[17].nic.mac1609_4 TooLittleTime 0
scalar Thesis.node[17].nic.mac1609_4 TimesIntoBackoff 45
scalar Thesis.node[17].nic.mac1609_4 SlotsBackoff 65
scalar Thesis.node[17].nic.mac1609_4 NumInternalContention 0
scalar Thesis.node[17].nic.mac1609_4 totalBusyTime 0.104825
scalar Thesis.node[17].veinsmobility startTime 39
scalar Thesis.node[17].veinsmobility totalTime 221
scalar Thesis.node[17].veinsmobility stopTime 261
scalar Thesis.node[17].veinsmobility minSpeed 0
scalar Thesis.node[17].veinsmobility maxSpeed 16.728187429044
scalar Thesis.node[17].veinsmobility totalDistance 1344.1384166252
scalar Thesis.node[17].veinsmobility totalCO2Emission 490.82887809203
scalar Thesis.node[56].appl generatedWSMs 60
scalar Thesis.node[56].appl receivedWSMs 631
scalar Thesis.node[56].appl generatedBSMs 1
scalar Thesis.node[56].appl receivedBSMs 16
scalar Thesis.node[56].appl generatedWSAs 0
scalar Thesis.node[56].appl receivedWSAs 0
scalar Thesis.node[56].nic.phy80211p busyTime 0.0011875882352941
scalar Thesis.node[56].nic.mac1609_4 ReceivedUnicastPackets 0
scalar Thesis.node[56].nic.mac1609_4 ReceivedBroadcasts 647
scalar Thesis.node[56].nic.mac1609_4 SentPackets 61
scalar Thesis.node[56].nic.mac1609_4 SentAcknowledgements 0
scalar Thesis.node[56].nic.mac1609_4 SNIRLostPackets 58
scalar Thesis.node[56].nic.mac1609_4 RXTXLostPackets 1
scalar Thesis.node[56].nic.mac1609_4 TotalLostPackets 59
scalar Thesis.node[56].nic.mac1609_4 DroppedPacketsInMac 0
scalar Thesis.node[56].nic.mac1609_4 TooLittleTime 0
scalar Thesis.node[56].nic.mac1609_4 TimesIntoBackoff 64
scalar Thesis.node[56].nic.mac1609_4 SlotsBackoff 85
scalar Thesis.node[56].nic.mac1609_4 NumInternalContention 0
scalar Thesis.node[56].nic.mac1609_4 totalBusyTime 0.169101
scalar Thesis.node[56].veinsmobility startTime 132
scalar Thesis.node[56].veinsmobility totalTime 135
scalar Thesis.node[56].veinsmobility stopTime 268
scalar Thesis.node[56].veinsmobility minSpeed 0
scalar Thesis.node[56].veinsmobility maxSpeed 13.225452626826
scalar Thesis.node[56].veinsmobility totalDistance 1190.6372851482
scalar Thesis.node[56].veinsmobility totalCO2Emission 349.32123455396
scalar Thesis.node[91].appl generatedWSMs 114
scalar Thesis.node[91].appl receivedWSMs 504
scalar Thesis.node[91].appl generatedBSMs 1
scalar Thesis.node[91].appl receivedBSMs 7
scalar Thesis.node[91].appl generatedWSAs 0
scalar Thesis.node[91].appl receivedWSAs 0
scalar Thesis.node[91].nic.phy80211p busyTime 0.0020850149253731
scalar Thesis.node[91].nic.mac1609_4 ReceivedUnicastPackets 0
scalar Thesis.node[91].nic.mac1609_4 ReceivedBroadcasts 511
scalar Thesis.node[91].nic.mac1609_4 SentPackets 115
scalar Thesis.node[91].nic.mac1609_4 SentAcknowledgements 0
scalar Thesis.node[91].nic.mac1609_4 SNIRLostPackets 93
scalar Thesis.node[91].nic.mac1609_4 RXTXLostPackets 12
scalar Thesis.node[91].nic.mac1609_4 TotalLostPackets 105
scalar Thesis.node[91].nic.mac1609_4 DroppedPacketsInMac 0
scalar Thesis.node[91].nic.mac1609_4 TooLittleTime 0
scalar Thesis.node[91].nic.mac1609_4 TimesIntoBackoff 140
scalar Thesis.node[91].nic.mac1609_4 SlotsBackoff 194
scalar Thesis.node[91].nic.mac1609_4 NumInternalContention 0
scalar Thesis.node[91].nic.mac1609_4 totalBusyTime 0.153444424001
scalar Thesis.node[91].veinsmobility startTime 213
scalar Thesis.node[91].veinsmobility totalTime 66
scalar Thesis.node[91].veinsmobility stopTime 280
scalar Thesis.node[91].veinsmobility minSpeed 0
scalar Thesis.node[91].veinsmobility maxSpeed 22.198969409722
scalar Thesis.node[91].veinsmobility totalDistance 529.20056347141
scalar Thesis.node[91].veinsmobility totalCO2Emission 182.66095517865
scalar Thesis.node[41].appl generatedWSMs 34
scalar Thesis.node[41].appl receivedWSMs 682
scalar Thesis.node[41].appl generatedBSMs 1
scalar Thesis.node[41].appl receivedBSMs 13
scalar Thesis.node[41].appl generatedWSAs 0
scalar Thesis.node[41].appl receivedWSAs 0
scalar Thesis.node[41].nic.phy80211p busyTime 0.00092025945945947
scalar Thesis.node[41].nic.mac1609_4 ReceivedUnicastPackets 0
scalar Thesis.node[41].nic.mac1609_4 ReceivedBroadcasts 695
scalar Thesis.node[41].nic.mac1609_4 SentPackets 35
scalar Thesis.node[41].nic.mac1609_4 SentAcknowledgements 0
scalar Thesis.node[41].nic.mac1609_4 SNIRLostPackets 45
scalar Thesis.node[41].nic.mac1609_4 RXTXLostPackets 2
scalar Thesis.node[41].nic.mac1609_4 TotalLostPackets 47
scalar Thesis.node[41].nic.mac1609_4 DroppedPacketsInMac 0
scalar Thesis.node[41].nic.mac1609_4 TooLittleTime 0
scalar Thesis.node[41].nic.mac1609_4 TimesIntoBackoff 39
scalar Thesis.node[41].nic.mac1609_4 SlotsBackoff 58
scalar Thesis.node[41].nic.mac1609_4 NumInternalContention 0
scalar Thesis.node[41].nic.mac1609_4 totalBusyTime 0.171779
scalar Thesis.node[41].veinsmobility startTime 97
scalar Thesis.node[41].veinsmobility totalTime 184
scalar Thesis.node[41].veinsmobility stopTime 282
scalar Thesis.node[41].veinsmobility minSpeed 0
scalar Thesis.node[41].veinsmobility maxSpeed 19.56032111484
scalar Thesis.node[41].veinsmobility totalDistance 1321.2794429118
scalar Thesis.node[41].veinsmobility totalCO2Emission 439.70637657508
scalar Thesis.node[39].appl generatedWSMs 19
scalar Thesis.node[39].appl receivedWSMs 830
scalar Thesis.node[39].appl generatedBSMs 1
scalar Thesis.node[39].appl receivedBSMs 25
scalar Thesis.node[39].appl generatedWSAs 0
scalar Thesis.node[39].appl receivedWSAs 0
scalar Thesis.node[39].nic.phy80211p busyTime 0.0013656852791878
scalar Thesis.node[39].nic.mac1609_4 ReceivedUnicastPackets 0
scalar Thesis.node[39].nic.mac1609_4 ReceivedBroadcasts 855
scalar Thesis.node[39].nic.mac1609_4 SentPackets 20
scalar Thesis.node[39].nic.mac1609_4 SentAcknowledgements 0
scalar Thesis.node[39].nic.mac1609_4 SNIRLostPackets 319
scalar Thesis.node[39].nic.mac1609_4 RXTXLostPackets 0
scalar Thesis.node[39].nic.mac1609_4 TotalLostPackets 319
scalar Thesis.node[39].nic.mac1609_4 DroppedPacketsInMac 0
scalar Thesis.node[39].nic.mac1609_4 TooLittleTime 0
scalar Thesis.node[39].nic.mac1609_4 TimesIntoBackoff 22
scalar Thesis.node[39].nic.mac1609_4 SlotsBackoff 27
scalar Thesis.node[39].nic.mac1609_4 NumInternalContention 0
scalar Thesis.node[39].nic.mac1609_4 totalBusyTime 0.238308
scalar Thesis.node[39].veinsmobility startTime 91
scalar Thesis.node[39].veinsmobility totalTime 196
scalar Thesis.node[39].veinsmobility stopTime 288
scalar Thesis.node[39].veinsmobility minSpeed 0
scalar Thesis.node[39].veinsmobility maxSpeed 17.953460562833
scalar Thesis.node[39].veinsmobility totalDistance 1597.5831873133
scalar Thesis.node[39].veinsmobility totalCO2Emission 525.33255465594
scalar Thesis.node[13].appl generatedWSMs 44
scalar Thesis.node[13].appl receivedWSMs 390
scalar Thesis.node[13].appl generatedBSMs 1
scalar Thesis.node[13].appl receivedBSMs 21
scalar Thesis.node[13].appl generatedWSAs 0
scalar Thesis.node[13].appl receivedWSAs 0
scalar Thesis.node[13].nic.phy80211p busyTime 0.00035394029850746
scalar Thesis.node[13].nic.mac1609_4 ReceivedUnicastPackets 0
scalar Thesis.node[13].nic.mac1609_4 ReceivedBroadcasts 411
scalar Thesis.node[13].nic.mac1609_4 SentPackets 45
scalar Thesis.node[13].nic.mac1609_4 SentAcknowledgements 0
scalar Thesis.node[13].nic.mac1609_4 SNIRLostPackets 10
scalar Thesis.node[13].nic.mac1609_4 RXTXLostPackets 2
scalar Thesis.node[13].nic.mac1609_4 TotalLostPackets 12
scalar Thesis.node[13].nic.mac1609_4 DroppedPacketsInMac 0
scalar Thesis.node[13].nic.mac1609_4 TooLittleTime 0
scalar Thesis.node[13].nic.mac1609_4 TimesIntoBackoff 51
scalar Thesis.node[13].nic.mac1609_4 SlotsBackoff 73
scalar Thesis.node[13].nic.mac1609_4 NumInternalContention 0
scalar Thesis.node[13].nic.mac1609_4 totalBusyTime 0.104053
scalar Thesis.node[13].veinsmobility startTime 21
scalar Thesis.node[13].veinsmobility totalTime 267
scalar Thesis.node[13].veinsmobility stopTime 289
scalar Thesis.node[13].veinsmobility minSpeed 0
scalar Thesis.node[13].veinsmobility maxSpeed 18.909957091463
scalar Thesis.node[13].veinsmobility totalDistance 1540.2474614125
scalar Thesis.node[13].veinsmobility totalCO2Emission 680.0926677382
scalar Thesis.node[26].appl generatedWSMs 25
scalar Thesis.node[26].appl receivedWSMs 845
scalar Thesis.node[26].appl generatedBSMs 1
scalar Thesis.node[26].appl receivedBSMs 25
scalar Thesis.node[26].appl generatedWSAs 0
scalar Thesis.node[26].appl receivedWSAs 0
scalar Thesis.node[26].nic.phy80211p busyTime 0.0013072941176471
scalar Thesis.node[26].nic.mac1609_4 ReceivedUnicastPackets 0
scalar Thesis.node[26].nic.mac1609_4 ReceivedBroadcasts 870
scalar Thesis.node[26].nic.mac1609_4 SentPackets 26
scalar Thesis.node[26].nic.mac1609_4 SentAcknowledgements 0
scalar Thesis.node[26].nic.mac1609_4 SNIRLostPackets 486
scalar Thesis.node[26].nic.mac1609_4 RXTXLostPackets 0
scalar Thesis.node[26].nic.mac1609_4 TotalLostPackets 486
scalar Thesis.node[26].nic.mac1609_4 DroppedPacketsInMac 0
scalar Thesis.node[26].nic.mac1609_4 TooLittleTime 0
scalar Thesis.node[26].nic.mac1609_4 TimesIntoBackoff 28
scalar Thesis.node[26].nic.mac1609_4 SlotsBackoff 38
scalar Thesis.node[26].nic.mac1609_4 NumInternalContention 0
scalar Thesis.node[26].nic.mac1609_4 totalBusyTime 0.253962
scalar Thesis.node[26].veinsmobility startTime 61
scalar Thesis.node[26].veinsmobility totalTime 237
scalar Thesis.node[26].veinsmobility stopTime 299
scalar Thesis.node[26].veinsmobility minSpeed 0
scalar Thesis.node[26].veinsmobility maxSpeed 16.214853433263
scalar Thesis.node[26].veinsmobility totalDistance 1764.4626082806
scalar Thesis.node[26].veinsmobility totalCO2Emission 624.5630890398
scalar Thesis.node[95].appl generatedWSMs 39
scalar Thesis.node[95].appl receivedWSMs 658
scalar Thesis.node[95].appl generatedBSMs 1
scalar Thesis.node[95].appl receivedBSMs 13
scalar Thesis.node[95].appl generatedWSAs 0
scalar Thesis.node[95].appl receivedWSAs 0
scalar Thesis.node[95].nic.phy80211p busyTime 0.0028194430379747
scalar Thesis.node[95].nic.mac1609_4 ReceivedUnicastPackets 0
scalar Thesis.node[95].nic.mac1609_4 ReceivedBroadcasts 671
scalar Thesis.node[95].nic.mac1609_4 SentPackets 40
scalar Thesis.node[95].nic.mac1609_4 SentAcknowledgements 0
scalar Thesis.node[95].nic.mac1609_4 SNIRLostPackets 297
scalar Thesis.node[95].nic.mac1609_4 RXTXLostPackets 12
scalar Thesis.node[95].nic.mac1609_4 TotalLostPackets 309
scalar Thesis.node[95].nic.mac1609_4 DroppedPacketsInMac 0
scalar Thesis.node[95].nic.mac1609_4 TooLittleTime 0
scalar Thesis.node[95].nic.mac1609_4 TimesIntoBackoff 60
scalar Thesis.node[95].nic.mac1609_4 SlotsBackoff 80
scalar Thesis.node[95].nic.mac1609_4 NumInternalContention 0
scalar Thesis.node[95].nic.mac1609_4 totalBusyTime 0.194392
scalar Thesis.node[95].veinsmobility startTime 221
scalar Thesis.node[95].veinsmobility totalTime 78
scalar Thesis.node[95].veinsmobility stopTime 300
scalar Thesis.node[95].veinsmobility minSpeed 0
scalar Thesis.node[95].veinsmobility maxSpeed 12.541836884382
scalar Thesis.node[95].veinsmobility totalDistance 621.27783686698
scalar Thesis.node[95].veinsmobility totalCO2Emission 195.95468753654
scalar Thesis.node[70].appl generatedWSMs 89
scalar Thesis.node[70].appl receivedWSMs 606
scalar Thesis.node[70].appl generatedBSMs 1
scalar Thesis.node[70].appl receivedBSMs 15
scalar Thesis.node[70].appl generatedWSAs 0
scalar Thesis.node[70].appl receivedWSAs 0
scalar Thesis.node[70].nic.phy80211p busyTime 0.0018890510948905
scalar Thesis.node[70].nic.mac1609_4 ReceivedUnicastPackets 0
scalar Thesis.node[70].nic.mac1609_4 ReceivedBroadcasts 621
scalar Thesis.node[70].nic.mac1609_4 SentPackets 90
scalar Thesis.node[70].nic.mac1609_4 SentAcknowledgements 0
scalar Thesis.node[70].nic.mac1609_4 SNIRLostPackets 497
scalar Thesis.node[70].nic.mac1609_4 RXTXLostPackets 23
scalar Thesis.node[70].nic.mac1609_4 TotalLostPackets 520
scalar Thesis.node[70].nic.mac1609_4 DroppedPacketsInMac 0
scalar Thesis.node[70].nic.mac1609_4 TooLittleTime 0
scalar Thesis.node[70].nic.mac1609_4 TimesIntoBackoff 122
scalar Thesis.node[70].nic.mac1609_4 SlotsBackoff 176
scalar Thesis.node[70].nic.mac1609_4 NumInternalContention 0
scalar Thesis.node[70].nic.mac1609_4 totalBusyTime 0.214412258259
scalar Thesis.node[70].veinsmobility startTime 166
scalar Thesis.node[70].veinsmobility totalTime 136
scalar Thesis.node[70].veinsmobility stopTime 303
scalar Thesis.node[70].veinsmobility minSpeed 0
scalar Thesis.node[70].veinsmobility maxSpeed 16.519257586134
scalar Thesis.node[70].veinsmobility totalDistance 925.79127230501
scalar Thesis.node[70].veinsmobility totalCO2Emission 305.20856447548
scalar Thesis.node[10].appl generatedWSMs 10
scalar Thesis.node[10].appl receivedWSMs 645
scalar Thesis.node[10].appl generatedBSMs 1
scalar Thesis.node[10].appl receivedBSMs 31
scalar Thesis.node[10].appl generatedWSAs 0
scalar Thesis.node[10].appl receivedWSAs 0
scalar Thesis.node[10].nic.phy80211p busyTime 0.00054471724137931
scalar Thesis.node[10].nic.mac1609_4 ReceivedUnicastPackets 0
scalar Thesis.node[10].nic.mac1609_4 ReceivedBroadcasts 676
scalar Thesis.node[10].nic.mac1609_4 SentPackets 11
scalar Thesis.node[10].nic.mac1609_4 SentAcknowledgements 0
scalar Thesis.node[10].nic.mac1609_4 SNIRLostPackets 22
scalar Thesis.node[10].nic.mac1609_4 RXTXLostPackets 0
scalar Thesis.node[10].nic.mac1609_4 TotalLostPackets 22
scalar Thesis.node[10].nic.mac1609_4 DroppedPacketsInMac 0
scalar Thesis.node[10].nic.mac1609_4 TooLittleTime 0
scalar Thesis.node[10].nic.mac1609_4 TimesIntoBackoff 11
scalar Thesis.node[10].nic.mac1609_4 SlotsBackoff 21
scalar Thesis.node[10].nic.mac1609_4 NumInternalContention 0
scalar Thesis.node[10].nic.mac1609_4 totalBusyTime 0.157155065429
scalar Thesis.node[10].veinsmobility startTime 13
scalar Thesis.node[10].veinsmobility totalTime 289
scalar Thesis.node[10].veinsmobility stopTime 303
scalar Thesis.node[10].veinsmobility minSpeed 0
scalar Thesis.node[10].veinsmobility maxSpeed 13.128593293063
scalar Thesis.node[10].veinsmobility totalDistance 1468.9245558404
scalar Thesis.node[10].veinsmobility totalCO2Emission 506.7531211503
scalar Thesis.node[55].appl generatedWSMs 42
scalar Thesis.node[55].appl receivedWSMs 840
scalar Thesis.node[55].appl generatedBSMs 1
scalar Thesis.node[55].appl receivedBSMs 22
scalar Thesis.node[55].appl generatedWSAs 0
scalar Thesis.node[55].appl receivedWSAs 0
scalar Thesis.node[55].nic.phy80211p busyTime 0.0017991314285715
scalar Thesis.node[55].nic.mac1609_4 ReceivedUnicastPackets 0
scalar Thesis.node[55].nic.mac1609_4 ReceivedBroadcasts 862
scalar Thesis.node[55].nic.mac1609_4 SentPackets 43
scalar Thesis.node[55].nic.mac1609_4 SentAcknowledgements 0
scalar Thesis.node[55].nic.mac1609_4 SNIRLostPackets 510
scalar Thesis.node[55].nic.mac1609_4 RXTXLostPackets 0
scalar Thesis.node[55].nic.mac1609_4 TotalLostPackets 510
scalar Thesis.node[55].nic.mac1609_4 DroppedPacketsInMac 0
scalar Thesis.node[55].nic.mac1609_4 TooLittleTime 0
scalar Thesis.node[55].nic.mac1609_4 TimesIntoBackoff 44
scalar Thesis.node[55].nic.mac1609_4 SlotsBackoff 55
scalar Thesis.node[55].nic.mac1609_4 NumInternalContention 0
scalar Thesis.node[55].nic.mac1609_4 totalBusyTime 0.264107
scalar Thesis.node[55].veinsmobility startTime 130
scalar Thesis.node[55].veinsmobility totalTime 174
scalar Thesis.node[55].veinsmobility stopTime 305
scalar Thesis.node[55].veinsmobility minSpeed 0
scalar Thesis.node[55].veinsmobility maxSpeed 27.917420801151
scalar Thesis.node[55].veinsmobility totalDistance 1720.9596608258
scalar Thesis.node[55].veinsmobility totalCO2Emission 578.60883705374
scalar Thesis.node[85].appl generatedWSMs 1
scalar Thesis.node[85].appl receivedWSMs 497
scalar Thesis.node[85].appl generatedBSMs 1
scalar Thesis.node[85].appl receivedBSMs 15
scalar Thesis.node[85].appl generatedWSAs 0
scalar Thesis.node[85].appl receivedWSAs 0
scalar Thesis.node[85].nic.phy80211p busyTime 0.0012114495412844
scalar Thesis.node[85].nic.mac1609_4 ReceivedUnicastPackets 0
scalar Thesis.node[85].nic.mac1609_4 ReceivedBroadcasts 512
scalar Thesis.node[85].nic.mac1609_4 SentPackets 2
scalar Thesis.node[85].nic.mac1609_4 SentAcknowledgements 0
scalar Thesis.node[85].nic.mac1609_4 SNIRLostPackets 66
scalar Thesis.node[85].nic.mac1609_4 RXTXLostPackets 0
scalar Thesis.node[85].nic.mac1609_4 TotalLostPackets 66
scalar Thesis.node[85].nic.mac1609_4 DroppedPacketsInMac 0
scalar Thesis.node[85].nic.mac1609_4 TooLittleTime 0
scalar Thesis.node[85].nic.mac1609_4 TimesIntoBackoff 3
scalar Thesis.node[85].nic.mac1609_4 SlotsBackoff 3
scalar Thesis.node[85].nic.mac1609_4 NumInternalContention 0
scalar Thesis.node[85].nic.mac1609_4 totalBusyTime 0.124626
scalar Thesis.node[85].veinsmobility startTime 198
scalar Thesis.node[85].veinsmobility totalTime 108
scalar Thesis.node[85].veinsmobility stopTime 307
scalar Thesis.node[85].veinsmobility minSpeed 0
scalar Thesis.node[85].veinsmobility maxSpeed 23.953659821759
scalar Thesis.node[85].veinsmobility totalDistance 873.99033745831
scalar Thesis.node[85].veinsmobility totalCO2Emission 276.120394702
scalar Thesis.node[0].appl generatedWSMs 4
scalar Thesis.node[0].appl receivedWSMs 901
scalar Thesis.node[0].appl generatedBSMs 1
scalar Thesis.node[0].appl receivedBSMs 23
scalar Thesis.node[0].appl generatedWSAs 0
scalar Thesis.node[0].appl receivedWSAs 0
scalar Thesis.node[0].nic.phy80211p busyTime 0.00075140065146581
scalar Thesis.node[0].nic.mac1609_4 ReceivedUnicastPackets 0
scalar Thesis.node[0].nic.mac1609_4 ReceivedBroadcasts 924
scalar Thesis.node[0].nic.mac1609_4 SentPackets 5
scalar Thesis.node[0].nic.mac1609_4 SentAcknowledgements 0
scalar Thesis.node[0].nic.mac1609_4 SNIRLostPackets 83
scalar Thesis.node[0].nic.mac1609_4 RXTXLostPackets 0
scalar Thesis.node[0].nic.mac1609_4 TotalLostPackets 83
scalar Thesis.node[0].nic.mac1609_4 DroppedPacketsInMac 0
scalar Thesis.node[0].nic.mac1609_4 TooLittleTime 0
scalar Thesis.node[0].nic.mac1609_4 TimesIntoBackoff 5
scalar Thesis.node[0].nic.mac1609_4 SlotsBackoff 6
scalar Thesis.node[0].nic.mac1609_4 NumInternalContention 0
scalar Thesis.node[0].nic.mac1609_4 totalBusyTime 0.219189
scalar Thesis.node[0].veinsmobility startTime 1
scalar Thesis.node[0].veinsmobility totalTime 306
scalar Thesis.node[0].veinsmobility stopTime 308
scalar Thesis.node[0].veinsmobility minSpeed 0
scalar Thesis.node[0].veinsmobility maxSpeed 15.500420758181
scalar Thesis.node[0].veinsmobility totalDistance 1399.5172396957
scalar Thesis.node[0].veinsmobility totalCO2Emission 608.28615173272
scalar Thesis.node[67].appl generatedWSMs 57
scalar Thesis.node[67].appl receivedWSMs 714
scalar Thesis.node[67].appl generatedBSMs 1
scalar Thesis.node[67].appl receivedBSMs 15
scalar Thesis.node[67].appl generatedWSAs 0
scalar Thesis.node[67].appl receivedWSAs 0
scalar Thesis.node[67].nic.phy80211p busyTime 0.0015954133333334
scalar Thesis.node[67].nic.mac1609_4 ReceivedUnicastPackets 0
scalar Thesis.node[67].nic.mac1609_4 ReceivedBroadcasts 729
scalar Thesis.node[67].nic.mac1609_4 SentPackets 58
scalar Thesis.node[67].nic.mac1609_4 SentAcknowledgements 0
scalar Thesis.node[67].nic.mac1609_4 SNIRLostPackets 311
scalar Thesis.node[67].nic.mac1609_4 RXTXLostPackets 18
scalar Thesis.node[67].nic.mac1609_4 TotalLostPackets 329
scalar Thesis.node[67].nic.mac1609_4 DroppedPacketsInMac 0
scalar Thesis.node[67].nic.mac1609_4 TooLittleTime 0
scalar Thesis.node[67].nic.mac1609_4 TimesIntoBackoff 82
scalar Thesis.node[67].nic.mac1609_4 SlotsBackoff 131
scalar Thesis.node[67].nic.mac1609_4 NumInternalContention 0
scalar Thesis.node[67].nic.mac1609_4 totalBusyTime 0.208642
scalar Thesis.node[67].veinsmobility startTime 158
scalar Thesis.node[67].veinsmobility totalTime 149
scalar Thesis.node[67].veinsmobility stopTime 308
scalar Thesis.node[67].veinsmobility minSpeed 0
scalar Thesis.node[67].veinsmobility maxSpeed 16.51125178654
scalar Thesis.node[67].veinsmobility totalDistance 1024.6049885093
scalar Thesis.node[67].veinsmobility totalCO2Emission 356.45154093995
scalar Thesis.node[37].appl generatedWSMs 2
scalar Thesis.node[37].appl receivedWSMs 569
scalar Thesis.node[37].appl generatedBSMs 1
scalar Thesis.node[37].appl receivedBSMs 22
scalar Thesis.node[37].appl generatedWSAs 0
scalar Thesis.node[37].appl receivedWSAs 0
scalar Thesis.node[37].nic.phy80211p busyTime 0.00063551569506726
scalar Thesis.node[37].nic.mac1609_4 ReceivedUnicastPackets 0
scalar Thesis.node[37].nic.mac1609_4 ReceivedBroadcasts 591
scalar Thesis.node[37].nic.mac1609_4 SentPackets 3
scalar Thesis.node[37].nic.mac1609_4 SentAcknowledgements 0
scalar Thesis.node[37].nic.mac1609_4 SNIRLostPackets 32
scalar Thesis.node[37].nic.mac1609_4 RXTXLostPackets 0
scalar Thesis.node[37].nic.mac1609_4 TotalLostPackets 32
scalar Thesis.node[37].nic.mac1609_4 DroppedPacketsInMac 0
scalar Thesis.node[37].nic.mac1609_4 TooLittleTime 0
scalar Thesis.node[37].nic.mac1609_4 TimesIntoBackoff 4
scalar Thesis.node[37].nic.mac1609_4 SlotsBackoff 5
scalar Thesis.node[37].nic.mac1609_4 NumInternalContention 0
scalar Thesis.node[37].nic.mac1609_4 totalBusyTime 0.138811
scalar Thesis.node[37].veinsmobility startTime 87
scalar Thesis.node[37].veinsmobility totalTime 222
scalar Thesis.node[37].veinsmobility stopTime 310
scalar Thesis.node[37].veinsmobility minSpeed 0
scalar Thesis.node[37].veinsmobility maxSpeed 22.241454661539
scalar Thesis.node[37].veinsmobility totalDistance 1850.2487674142
scalar Thesis.node[37].veinsmobility totalCO2Emission 599.99887414888
scalar Thesis.node[89].appl generatedWSMs 69
scalar Thesis.node[89].appl receivedWSMs 707
scalar Thesis.node[89].appl generatedBSMs 1
scalar Thesis.node[89].appl receivedBSMs 22
scalar Thesis.node[89].appl generatedWSAs 0
scalar Thesis.node[89].appl receivedWSAs 0
scalar Thesis.node[89].nic.phy80211p busyTime 0.0024194851485149
scalar Thesis.node[89].nic.mac1609_4 ReceivedUnicastPackets 0
scalar Thesis.node[89].nic.mac1609_4 ReceivedBroadcasts 729
scalar Thesis.node[89].nic.mac1609_4 SentPackets 70
scalar Thesis.node[89].nic.mac1609_4 SentAcknowledgements 0
scalar Thesis.node[89].nic.mac1609_4 SNIRLostPackets 335
scalar Thesis.node[89].nic.mac1609_4 RXTXLostPackets 17
scalar Thesis.node[89].nic.mac1609_4 TotalLostPackets 352
scalar Thesis.node[89].nic.mac1609_4 DroppedPacketsInMac 0
scalar Thesis.node[89].nic.mac1609_4 TooLittleTime 0
scalar Thesis.node[89].nic.mac1609_4 TimesIntoBackoff 93
scalar Thesis.node[89].nic.mac1609_4 SlotsBackoff 145
scalar Thesis.node[89].nic.mac1609_4 NumInternalContention 0
scalar Thesis.node[89].nic.mac1609_4 totalBusyTime 0.215078
scalar Thesis.node[89].veinsmobility startTime 209
scalar Thesis.node[89].veinsmobility totalTime 100
scalar Thesis.node[89].veinsmobility stopTime 310
scalar Thesis.node[89].veinsmobility minSpeed 0
scalar Thesis.node[89].veinsmobility maxSpeed 26.493322621162
scalar Thesis.node[89].veinsmobility totalDistance 962.01164706667
scalar Thesis.node[89].veinsmobility totalCO2Emission 335.43291471497
scalar Thesis.node[61].appl generatedWSMs 10
scalar Thesis.node[61].appl receivedWSMs 524
scalar Thesis.node[61].appl generatedBSMs 1
scalar Thesis.node[61].appl receivedBSMs 16
scalar Thesis.node[61].appl generatedWSAs 0
scalar Thesis.node[61].appl receivedWSAs 0
scalar Thesis.node[61].nic.phy80211p busyTime 0.00089672289156627
scalar Thesis.node[61].nic.mac1609_4 ReceivedUnicastPackets 0
scalar Thesis.node[61].nic.mac1609_4 ReceivedBroadcasts 540
scalar Thesis.node[61].nic.mac1609_4 SentPackets 11
scalar Thesis.node[61].nic.mac1609_4 SentAcknowledgements 0
scalar Thesis.node[61].nic.mac1609_4 SNIRLostPackets 110
scalar Thesis.node[61].nic.mac1609_4 RXTXLostPackets 4
scalar Thesis.node[61].nic.mac1609_4 TotalLostPackets 114
scalar Thesis.node[61].nic.mac1609_4 DroppedPacketsInMac 0
scalar Thesis.node[61].nic.mac1609_4 TooLittleTime 0
scalar Thesis.node[61].nic.mac1609_4 TimesIntoBackoff 14
scalar Thesis.node[61].nic.mac1609_4 SlotsBackoff 26
scalar Thesis.node[61].nic.mac1609_4 NumInternalContention 0
scalar Thesis.node[61].nic.mac1609_4 totalBusyTime 0.138763
scalar Thesis.node[61].veinsmobility startTime 144
scalar Thesis.node[61].veinsmobility totalTime 165
scalar Thesis.node[61].veinsmobility stopTime 310
scalar Thesis.node[61].veinsmobility minSpeed 0
scalar Thesis.node[61].veinsmobility maxSpeed 16.920988375235
scalar Thesis.node[61].veinsmobility totalDistance 1353.8206530428
scalar Thesis.node[61].veinsmobility totalCO2Emission 461.62283677567
scalar Thesis.node[22].appl generatedWSMs 27
scalar Thesis.node[22].appl receivedWSMs 889
scalar Thesis.node[22].appl generatedBSMs 1
scalar Thesis.node[22].appl receivedBSMs 29
scalar Thesis.node[22].appl generatedWSAs 0
scalar Thesis.node[22].appl receivedWSAs 0
scalar Thesis.node[22].nic.phy80211p busyTime 0.00088483720930234
scalar Thesis.node[22].nic.mac1609_4 ReceivedUnicastPackets 0
scalar Thesis.node[22].nic.mac1609_4 ReceivedBroadcasts 918
scalar Thesis.node[22].nic.mac1609_4 SentPackets 28
scalar Thesis.node[22].nic.mac1609_4 SentAcknowledgements 0
scalar Thesis.node[22].nic.mac1609_4 SNIRLostPackets 82
scalar Thesis.node[22].nic.mac1609_4 RXTXLostPackets 1
scalar Thesis.node[22].nic.mac1609_4 TotalLostPackets 83
scalar Thesis.node[22].nic.mac1609_4 DroppedPacketsInMac 0
scalar Thesis.node[22].nic.mac1609_4 TooLittleTime 0
scalar Thesis.node[22].nic.mac1609_4 TimesIntoBackoff 33
scalar Thesis.node[22].nic.mac1609_4 SlotsBackoff 52
scalar Thesis.node[22].nic.mac1609_4 NumInternalContention 0
scalar Thesis.node[22].nic.mac1609_4 totalBusyTime 0.226564
scalar Thesis.node[22].veinsmobility startTime 53
scalar Thesis.node[22].veinsmobility totalTime 257
scalar Thesis.node[22].veinsmobility stopTime 311
scalar Thesis.node[22].veinsmobility minSpeed 0
scalar Thesis.node[22].veinsmobility maxSpeed 27.91340575476
scalar Thesis.node[22].veinsmobility totalDistance 2575.9363821481
scalar Thesis.node[22].veinsmobility totalCO2Emission 819.06710708397
scalar Thesis.node[87].appl generatedWSMs 57
scalar Thesis.node[87].appl receivedWSMs 749
scalar Thesis.node[87].appl generatedBSMs 1
scalar Thesis.node[87].appl receivedBSMs 17
scalar Thesis.node[87].appl generatedWSAs 0
scalar Thesis.node[87].appl receivedWSAs 0
scalar Thesis.node[87].nic.phy80211p busyTime 0.0021681495327103
scalar Thesis.node[87].nic.mac1609_4 ReceivedUnicastPackets 0
scalar Thesis.node[87].nic.mac1609_4 ReceivedBroadcasts 766
scalar Thesis.node[87].nic.mac1609_4 SentPackets 58
scalar Thesis.node[87].nic.mac1609_4 SentAcknowledgements 0
scalar Thesis.node[87].nic.mac1609_4 SNIRLostPackets 243
scalar Thesis.node[87].nic.mac1609_4 RXTXLostPackets 23
scalar Thesis.node[87].nic.mac1609_4 TotalLostPackets 266
scalar Thesis.node[87].nic.mac1609_4 DroppedPacketsInMac 0
scalar Thesis.node[87].nic.mac1609_4 TooLittleTime 0
scalar Thesis.node[87].nic.mac1609_4 TimesIntoBackoff 85
scalar Thesis.node[87].nic.mac1609_4 SlotsBackoff 135
scalar Thesis.node[87].nic.mac1609_4 NumInternalContention 0
scalar Thesis.node[87].nic.mac1609_4 totalBusyTime 0.210602008599
scalar Thesis.node[87].veinsmobility startTime 204
scalar Thesis.node[87].veinsmobility totalTime 106
scalar Thesis.node[87].veinsmobility stopTime 311
scalar Thesis.node[87].veinsmobility minSpeed 0
scalar Thesis.node[87].veinsmobility maxSpeed 25.795415643724
scalar Thesis.node[87].veinsmobility totalDistance 1100.2572454121
scalar Thesis.node[87].veinsmobility totalCO2Emission 392.56538730412
scalar Thesis.node[18].appl generatedWSMs 7
scalar Thesis.node[18].appl receivedWSMs 832
scalar Thesis.node[18].appl generatedBSMs 1
scalar Thesis.node[18].appl receivedBSMs 37
scalar Thesis.node[18].appl generatedWSAs 0
scalar Thesis.node[18].appl receivedWSAs 0
scalar Thesis.node[18].nic.phy80211p busyTime 0.00081629411764707
scalar Thesis.node[18].nic.mac1609_4 ReceivedUnicastPackets 0
scalar Thesis.node[18].nic.mac1609_4 ReceivedBroadcasts 869
scalar Thesis.node[18].nic.mac1609_4 SentPackets 8
scalar Thesis.node[18].nic.mac1609_4 SentAcknowledgements 0
scalar Thesis.node[18].nic.mac1609_4 SNIRLostPackets 109
scalar Thesis.node[18].nic.mac1609_4 RXTXLostPackets 0
scalar Thesis.node[18].nic.mac1609_4 TotalLostPackets 109
scalar Thesis.node[18].nic.mac1609_4 DroppedPacketsInMac 0
scalar Thesis.node[18].nic.mac1609_4 TooLittleTime 0
scalar Thesis.node[18].nic.mac1609_4 TimesIntoBackoff 8
scalar Thesis.node[18].nic.mac1609_4 SlotsBackoff 11
scalar Thesis.node[18].nic.mac1609_4 NumInternalContention 0
scalar Thesis.node[18].nic.mac1609_4 totalBusyTime 0.210776
scalar Thesis.node[18].veinsmobility startTime 41
scalar Thesis.node[18].veinsmobility totalTime 271
scalar Thesis.node[18].veinsmobility stopTime 313
scalar Thesis.node[18].veinsmobility minSpeed 0.44423408345075
scalar Thesis.node[18].veinsmobility maxSpeed 14.413892013591
scalar Thesis.node[18].veinsmobility totalDistance 1779.5616880719
scalar Thesis.node[18].veinsmobility totalCO2Emission 628.36584655075
scalar Thesis.node[94].appl generatedWSMs 141
scalar Thesis.node[94].appl receivedWSMs 551
scalar Thesis.node[94].appl generatedBSMs 1
scalar Thesis.node[94].appl receivedBSMs 13
scalar Thesis.node[94].appl generatedWSAs 0
scalar Thesis.node[94].appl receivedWSAs 0
scalar Thesis.node[94].nic.phy80211p busyTime 0.0023578556701031
scalar Thesis.node[94].nic.mac1609_4 ReceivedUnicastPackets 0
scalar Thesis.node[94].nic.mac1609_4 ReceivedBroadcasts 564
scalar Thesis.node[94].nic.mac1609_4 SentPackets 142
scalar Thesis.node[94].nic.mac1609_4 SentAcknowledgements 0
scalar Thesis.node[94].nic.mac1609_4 SNIRLostPackets 414
scalar Thesis.node[94].nic.mac1609_4 RXTXLostPackets 47
scalar Thesis.node[94].nic.mac1609_4 TotalLostPackets 461
scalar Thesis.node[94].nic.mac1609_4 DroppedPacketsInMac 0
scalar Thesis.node[94].nic.mac1609_4 TooLittleTime 0
scalar Thesis.node[94].nic.mac1609_4 TimesIntoBackoff 179
scalar Thesis.node[94].nic.mac1609_4 SlotsBackoff 263
scalar Thesis.node[94].nic.mac1609_4 NumInternalContention 0
scalar Thesis.node[94].nic.mac1609_4 totalBusyTime 0.212022
scalar Thesis.node[94].veinsmobility startTime 219
scalar Thesis.node[94].veinsmobility totalTime 96
scalar Thesis.node[94].veinsmobility stopTime 316
scalar Thesis.node[94].veinsmobility minSpeed 3.0036336103132
scalar Thesis.node[94].veinsmobility maxSpeed 15.634842791389
scalar Thesis.node[94].veinsmobility totalDistance 636.85152459389
scalar Thesis.node[94].veinsmobility totalCO2Emission 214.58708745043
scalar Thesis.node[82].appl generatedWSMs 60
scalar Thesis.node[82].appl receivedWSMs 705
scalar Thesis.node[82].appl generatedBSMs 1
scalar Thesis.node[82].appl receivedBSMs 21
scalar Thesis.node[82].appl generatedWSAs 0
scalar Thesis.node[82].appl receivedWSAs 0
scalar Thesis.node[82].nic.phy80211p busyTime 0.0019945826771654
scalar Thesis.node[82].nic.mac1609_4 ReceivedUnicastPackets 0
scalar Thesis.node[82].nic.mac1609_4 ReceivedBroadcasts 726
scalar Thesis.node[82].nic.mac1609_4 SentPackets 61
scalar Thesis.node[82].nic.mac1609_4 SentAcknowledgements 0
scalar Thesis.node[82].nic.mac1609_4 SNIRLostPackets 368
scalar Thesis.node[82].nic.mac1609_4 RXTXLostPackets 23
scalar Thesis.node[82].nic.mac1609_4 TotalLostPackets 391
scalar Thesis.node[82].nic.mac1609_4 DroppedPacketsInMac 0
scalar Thesis.node[82].nic.mac1609_4 TooLittleTime 0
scalar Thesis.node[82].nic.mac1609_4 TimesIntoBackoff 91
scalar Thesis.node[82].nic.mac1609_4 SlotsBackoff 148
scalar Thesis.node[82].nic.mac1609_4 NumInternalContention 0
scalar Thesis.node[82].nic.mac1609_4 totalBusyTime 0.215893
scalar Thesis.node[82].veinsmobility startTime 190
scalar Thesis.node[82].veinsmobility totalTime 126
scalar Thesis.node[82].veinsmobility stopTime 317
scalar Thesis.node[82].veinsmobility minSpeed 0
scalar Thesis.node[82].veinsmobility maxSpeed 15.261683215861
scalar Thesis.node[82].veinsmobility totalDistance 1135.9943927224
scalar Thesis.node[82].veinsmobility totalCO2Emission 277.53036738749
scalar Thesis.node[96].appl generatedWSMs 56
scalar Thesis.node[96].appl receivedWSMs 740
scalar Thesis.node[96].appl generatedBSMs 1
scalar Thesis.node[96].appl receivedBSMs 17
scalar Thesis.node[96].appl generatedWSAs 0
scalar Thesis.node[96].appl receivedWSAs 0
scalar Thesis.node[96].nic.phy80211p busyTime 0.0024249361702128
scalar Thesis.node[96].nic.mac1609_4 ReceivedUnicastPackets 0
scalar Thesis.node[96].nic.mac1609_4 ReceivedBroadcasts 757
scalar Thesis.node[96].nic.mac1609_4 SentPackets 57
scalar Thesis.node[96].nic.mac1609_4 SentAcknowledgements 0
scalar Thesis.node[96].nic.mac1609_4 SNIRLostPackets 232
scalar Thesis.node[96].nic.mac1609_4 RXTXLostPackets 15
scalar Thesis.node[96].nic.mac1609_4 TotalLostPackets 247
scalar Thesis.node[96].nic.mac1609_4 DroppedPacketsInMac 0
scalar Thesis.node[96].nic.mac1609_4 TooLittleTime 0
scalar Thesis.node[96].nic.mac1609_4 TimesIntoBackoff 81
scalar Thesis.node[96].nic.mac1609_4 SlotsBackoff 115
scalar Thesis.node[96].nic.mac1609_4 NumInternalContention 0
scalar Thesis.node[96].nic.mac1609_4 totalBusyTime 0.205961226588
scalar Thesis.node[96].veinsmobility startTime 223
scalar Thesis.node[96].veinsmobility totalTime 93
scalar Thesis.node[96].veinsmobility stopTime 317
scalar Thesis.node[96].veinsmobility minSpeed 0
scalar Thesis.node[96].veinsmobility maxSpeed 14.58917241593
scalar Thesis.node[96].veinsmobility totalDistance 803.95461057845
scalar Thesis.node[96].veinsmobility totalCO2Emission 285.22192609898
scalar Thesis.node[80].appl generatedWSMs 82
scalar Thesis.node[80].appl receivedWSMs 548
scalar Thesis.node[80].appl generatedBSMs 1
scalar Thesis.node[80].appl receivedBSMs 8
scalar Thesis.node[80].appl generatedWSAs 0
scalar Thesis.node[80].appl receivedWSAs 0
scalar Thesis.node[80].nic.phy80211p busyTime 0.0012354198473283
scalar Thesis.node[80].nic.mac1609_4 ReceivedUnicastPackets 0
scalar Thesis.node[80].nic.mac1609_4 ReceivedBroadcasts 556
scalar Thesis.node[80].nic.mac1609_4 SentPackets 83
scalar Thesis.node[80].nic.mac1609_4 SentAcknowledgements 0
scalar Thesis.node[80].nic.mac1609_4 SNIRLostPackets 141
scalar Thesis.node[80].nic.mac1609_4 RXTXLostPackets 21
scalar Thesis.node[80].nic.mac1609_4 TotalLostPackets 162
scalar Thesis.node[80].nic.mac1609_4 DroppedPacketsInMac 0
scalar Thesis.node[80].nic.mac1609_4 TooLittleTime 0
scalar Thesis.node[80].nic.mac1609_4 TimesIntoBackoff 105
scalar Thesis.node[80].nic.mac1609_4 SlotsBackoff 161
scalar Thesis.node[80].nic.mac1609_4 NumInternalContention 0
scalar Thesis.node[80].nic.mac1609_4 totalBusyTime 0.161313113783
scalar Thesis.node[80].veinsmobility startTime 186
scalar Thesis.node[80].veinsmobility totalTime 130
[...]
scalar Thesis.node[838].nic.mac1609_4 ReceivedUnicastPackets 0
scalar Thesis.node[838].nic.mac1609_4 ReceivedBroadcasts 1
scalar Thesis.node[838].nic.mac1609_4 SentPackets 0
scalar Thesis.node[838].nic.mac1609_4 SentAcknowledgements 0
scalar Thesis.node[838].nic.mac1609_4 SNIRLostPackets 0
scalar Thesis.node[838].nic.mac1609_4 RXTXLostPackets 0
scalar Thesis.node[838].nic.mac1609_4 TotalLostPackets 0
scalar Thesis.node[838].nic.mac1609_4 DroppedPacketsInMac 0
scalar Thesis.node[838].nic.mac1609_4 TooLittleTime 0
scalar Thesis.node[838].nic.mac1609_4 TimesIntoBackoff 0
scalar Thesis.node[838].nic.mac1609_4 SlotsBackoff 0
scalar Thesis.node[838].nic.mac1609_4 NumInternalContention 0
scalar Thesis.node[838].nic.mac1609_4 totalBusyTime 0.000232
scalar Thesis.node[838].veinsmobility startTime 1972
scalar Thesis.node[838].veinsmobility totalTime 28
scalar Thesis.node[838].veinsmobility stopTime 2000
scalar Thesis.node[838].veinsmobility minSpeed 2.6666733799472
scalar Thesis.node[838].veinsmobility maxSpeed 13.677156236748
scalar Thesis.node[838].veinsmobility totalDistance 244.73953835697
scalar Thesis.node[838].veinsmobility totalCO2Emission 72.331386039721
scalar Thesis.node[839].appl generatedWSMs 0
scalar Thesis.node[839].appl receivedWSMs 1
scalar Thesis.node[839].appl generatedBSMs 0
scalar Thesis.node[839].appl receivedBSMs 0
scalar Thesis.node[839].appl generatedWSAs 0
scalar Thesis.node[839].appl receivedWSAs 0
scalar Thesis.node[839].nic.phy80211p busyTime 8.9230769230769e-006
scalar Thesis.node[839].nic.mac1609_4 ReceivedUnicastPackets 0
scalar Thesis.node[839].nic.mac1609_4 ReceivedBroadcasts 1
scalar Thesis.node[839].nic.mac1609_4 SentPackets 0
scalar Thesis.node[839].nic.mac1609_4 SentAcknowledgements 0
scalar Thesis.node[839].nic.mac1609_4 SNIRLostPackets 0
scalar Thesis.node[839].nic.mac1609_4 RXTXLostPackets 0
scalar Thesis.node[839].nic.mac1609_4 TotalLostPackets 0
scalar Thesis.node[839].nic.mac1609_4 DroppedPacketsInMac 0
scalar Thesis.node[839].nic.mac1609_4 TooLittleTime 0
scalar Thesis.node[839].nic.mac1609_4 TimesIntoBackoff 0
scalar Thesis.node[839].nic.mac1609_4 SlotsBackoff 0
scalar Thesis.node[839].nic.mac1609_4 NumInternalContention 0
scalar Thesis.node[839].nic.mac1609_4 totalBusyTime 0.000232
scalar Thesis.node[839].veinsmobility startTime 1974
scalar Thesis.node[839].veinsmobility totalTime 26
scalar Thesis.node[839].veinsmobility stopTime 2000
scalar Thesis.node[839].veinsmobility minSpeed 1.1743731522056
scalar Thesis.node[839].veinsmobility maxSpeed 14.951349467708
scalar Thesis.node[839].veinsmobility totalDistance 191.21294765757
scalar Thesis.node[839].veinsmobility totalCO2Emission 82.820890418638
scalar Thesis.node[840].appl generatedWSMs 0
scalar Thesis.node[840].appl receivedWSMs 1
scalar Thesis.node[840].appl generatedBSMs 0
scalar Thesis.node[840].appl receivedBSMs 0
scalar Thesis.node[840].appl generatedWSAs 0
scalar Thesis.node[840].appl receivedWSAs 0
scalar Thesis.node[840].nic.phy80211p busyTime 1.0545454545455e-005
scalar Thesis.node[840].nic.mac1609_4 ReceivedUnicastPackets 0
scalar Thesis.node[840].nic.mac1609_4 ReceivedBroadcasts 1
scalar Thesis.node[840].nic.mac1609_4 SentPackets 0
scalar Thesis.node[840].nic.mac1609_4 SentAcknowledgements 0
scalar Thesis.node[840].nic.mac1609_4 SNIRLostPackets 0
scalar Thesis.node[840].nic.mac1609_4 RXTXLostPackets 0
scalar Thesis.node[840].nic.mac1609_4 TotalLostPackets 0
scalar Thesis.node[840].nic.mac1609_4 DroppedPacketsInMac 0
scalar Thesis.node[840].nic.mac1609_4 TooLittleTime 0
scalar Thesis.node[840].nic.mac1609_4 TimesIntoBackoff 0
scalar Thesis.node[840].nic.mac1609_4 SlotsBackoff 0
scalar Thesis.node[840].nic.mac1609_4 NumInternalContention 0
scalar Thesis.node[840].nic.mac1609_4 totalBusyTime 0.000232
scalar Thesis.node[840].veinsmobility startTime 1978
scalar Thesis.node[840].veinsmobility totalTime 22
scalar Thesis.node[840].veinsmobility stopTime 2000
scalar Thesis.node[840].veinsmobility minSpeed 3.3998328530356
scalar Thesis.node[840].veinsmobility maxSpeed 15.566041961302
scalar Thesis.node[840].veinsmobility totalDistance 222.29286868343
scalar Thesis.node[840].veinsmobility totalCO2Emission 92.470240015884
scalar Thesis.node[841].appl generatedWSMs 0
scalar Thesis.node[841].appl receivedWSMs 1
scalar Thesis.node[841].appl generatedBSMs 0
scalar Thesis.node[841].appl receivedBSMs 0
scalar Thesis.node[841].appl generatedWSAs 0
scalar Thesis.node[841].appl receivedWSAs 0
scalar Thesis.node[841].nic.phy80211p busyTime 1.16e-005
scalar Thesis.node[841].nic.mac1609_4 ReceivedUnicastPackets 0
scalar Thesis.node[841].nic.mac1609_4 ReceivedBroadcasts 1
scalar Thesis.node[841].nic.mac1609_4 SentPackets 0
scalar Thesis.node[841].nic.mac1609_4 SentAcknowledgements 0
scalar Thesis.node[841].nic.mac1609_4 SNIRLostPackets 0
scalar Thesis.node[841].nic.mac1609_4 RXTXLostPackets 0
scalar Thesis.node[841].nic.mac1609_4 TotalLostPackets 0
scalar Thesis.node[841].nic.mac1609_4 DroppedPacketsInMac 0
scalar Thesis.node[841].nic.mac1609_4 TooLittleTime 0
scalar Thesis.node[841].nic.mac1609_4 TimesIntoBackoff 0
scalar Thesis.node[841].nic.mac1609_4 SlotsBackoff 0
scalar Thesis.node[841].nic.mac1609_4 NumInternalContention 0
scalar Thesis.node[841].nic.mac1609_4 totalBusyTime 0.000232
scalar Thesis.node[841].veinsmobility startTime 1980
scalar Thesis.node[841].veinsmobility totalTime 20
scalar Thesis.node[841].veinsmobility stopTime 2000
scalar Thesis.node[841].veinsmobility minSpeed 3.5305016216139
scalar Thesis.node[841].veinsmobility maxSpeed 11.597938872259
scalar Thesis.node[841].veinsmobility totalDistance 140.26123654687
scalar Thesis.node[841].veinsmobility totalCO2Emission 64.770259413896
scalar Thesis.node[842].appl generatedWSMs 0
scalar Thesis.node[842].appl receivedWSMs 0
scalar Thesis.node[842].appl generatedBSMs 0
scalar Thesis.node[842].appl receivedBSMs 0
scalar Thesis.node[842].appl generatedWSAs 0
scalar Thesis.node[842].appl receivedWSAs 0
scalar Thesis.node[842].nic.phy80211p busyTime 0
scalar Thesis.node[842].nic.mac1609_4 ReceivedUnicastPackets 0
scalar Thesis.node[842].nic.mac1609_4 ReceivedBroadcasts 0
scalar Thesis.node[842].nic.mac1609_4 SentPackets 0
scalar Thesis.node[842].nic.mac1609_4 SentAcknowledgements 0
scalar Thesis.node[842].nic.mac1609_4 SNIRLostPackets 0
scalar Thesis.node[842].nic.mac1609_4 RXTXLostPackets 0
scalar Thesis.node[842].nic.mac1609_4 TotalLostPackets 0
scalar Thesis.node[842].nic.mac1609_4 DroppedPacketsInMac 0
scalar Thesis.node[842].nic.mac1609_4 TooLittleTime 0
scalar Thesis.node[842].nic.mac1609_4 TimesIntoBackoff 0
scalar Thesis.node[842].nic.mac1609_4 SlotsBackoff 0
scalar Thesis.node[842].nic.mac1609_4 NumInternalContention 0
scalar Thesis.node[842].nic.mac1609_4 totalBusyTime 0
scalar Thesis.node[842].veinsmobility startTime 1982
scalar Thesis.node[842].veinsmobility totalTime 18
scalar Thesis.node[842].veinsmobility stopTime 2000
scalar Thesis.node[842].veinsmobility minSpeed 0.45040079998936
scalar Thesis.node[842].veinsmobility maxSpeed 12.698117275086
scalar Thesis.node[842].veinsmobility totalDistance 149.48946214435
scalar Thesis.node[842].veinsmobility totalCO2Emission 45.76462995197
scalar Thesis.node[843].appl generatedWSMs 0
scalar Thesis.node[843].appl receivedWSMs 0
scalar Thesis.node[843].appl generatedBSMs 0
scalar Thesis.node[843].appl receivedBSMs 0
scalar Thesis.node[843].appl generatedWSAs 0
scalar Thesis.node[843].appl receivedWSAs 0
scalar Thesis.node[843].nic.phy80211p busyTime 0
scalar Thesis.node[843].nic.mac1609_4 ReceivedUnicastPackets 0
scalar Thesis.node[843].nic.mac1609_4 ReceivedBroadcasts 0
scalar Thesis.node[843].nic.mac1609_4 SentPackets 0
scalar Thesis.node[843].nic.mac1609_4 SentAcknowledgements 0
scalar Thesis.node[843].nic.mac1609_4 SNIRLostPackets 0
scalar Thesis.node[843].nic.mac1609_4 RXTXLostPackets 0
scalar Thesis.node[843].nic.mac1609_4 TotalLostPackets 0
scalar Thesis.node[843].nic.mac1609_4 DroppedPacketsInMac 0
scalar Thesis.node[843].nic.mac1609_4 TooLittleTime 0
scalar Thesis.node[843].nic.mac1609_4 TimesIntoBackoff 0
scalar Thesis.node[843].nic.mac1609_4 SlotsBackoff 0
scalar Thesis.node[843].nic.mac1609_4 NumInternalContention 0
scalar Thesis.node[843].nic.mac1609_4 totalBusyTime 0
scalar Thesis.node[843].veinsmobility startTime 1984
scalar Thesis.node[843].veinsmobility totalTime 16
scalar Thesis.node[843].veinsmobility stopTime 2000
scalar Thesis.node[843].veinsmobility minSpeed 0.44915799334995
scalar Thesis.node[843].veinsmobility maxSpeed 13.56653734734
scalar Thesis.node[843].veinsmobility totalDistance 122.31027570927
scalar Thesis.node[843].veinsmobility totalCO2Emission 44.195364752602
scalar Thesis.node[844].appl generatedWSMs 0
scalar Thesis.node[844].appl receivedWSMs 0
scalar Thesis.node[844].appl generatedBSMs 0
scalar Thesis.node[844].appl receivedBSMs 0
scalar Thesis.node[844].appl generatedWSAs 0
scalar Thesis.node[844].appl receivedWSAs 0
scalar Thesis.node[844].nic.phy80211p busyTime 0
scalar Thesis.node[844].nic.mac1609_4 ReceivedUnicastPackets 0
scalar Thesis.node[844].nic.mac1609_4 ReceivedBroadcasts 0
scalar Thesis.node[844].nic.mac1609_4 SentPackets 0
scalar Thesis.node[844].nic.mac1609_4 SentAcknowledgements 0
scalar Thesis.node[844].nic.mac1609_4 SNIRLostPackets 0
scalar Thesis.node[844].nic.mac1609_4 RXTXLostPackets 0
scalar Thesis.node[844].nic.mac1609_4 TotalLostPackets 0
scalar Thesis.node[844].nic.mac1609_4 DroppedPacketsInMac 0
scalar Thesis.node[844].nic.mac1609_4 TooLittleTime 0
scalar Thesis.node[844].nic.mac1609_4 TimesIntoBackoff 0
scalar Thesis.node[844].nic.mac1609_4 SlotsBackoff 0
scalar Thesis.node[844].nic.mac1609_4 NumInternalContention 0
scalar Thesis.node[844].nic.mac1609_4 totalBusyTime 0
scalar Thesis.node[844].veinsmobility startTime 1986
scalar Thesis.node[844].veinsmobility totalTime 14
scalar Thesis.node[844].veinsmobility stopTime 2000
scalar Thesis.node[844].veinsmobility minSpeed 3.2980678958202
scalar Thesis.node[844].veinsmobility maxSpeed 10.376530427974
scalar Thesis.node[844].veinsmobility totalDistance 96.612938334277
scalar Thesis.node[844].veinsmobility totalCO2Emission 39.80096633623
scalar Thesis.node[845].appl generatedWSMs 0
scalar Thesis.node[845].appl receivedWSMs 0
scalar Thesis.node[845].appl generatedBSMs 0
scalar Thesis.node[845].appl receivedBSMs 0
scalar Thesis.node[845].appl generatedWSAs 0
scalar Thesis.node[845].appl receivedWSAs 0
scalar Thesis.node[845].nic.phy80211p busyTime 0
scalar Thesis.node[845].nic.mac1609_4 ReceivedUnicastPackets 0
scalar Thesis.node[845].nic.mac1609_4 ReceivedBroadcasts 0
scalar Thesis.node[845].nic.mac1609_4 SentPackets 0
scalar Thesis.node[845].nic.mac1609_4 SentAcknowledgements 0
scalar Thesis.node[845].nic.mac1609_4 SNIRLostPackets 0
scalar Thesis.node[845].nic.mac1609_4 RXTXLostPackets 0
scalar Thesis.node[845].nic.mac1609_4 TotalLostPackets 0
scalar Thesis.node[845].nic.mac1609_4 DroppedPacketsInMac 0
scalar Thesis.node[845].nic.mac1609_4 TooLittleTime 0
scalar Thesis.node[845].nic.mac1609_4 TimesIntoBackoff 0
scalar Thesis.node[845].nic.mac1609_4 SlotsBackoff 0
scalar Thesis.node[845].nic.mac1609_4 NumInternalContention 0
scalar Thesis.node[845].nic.mac1609_4 totalBusyTime 0
scalar Thesis.node[845].veinsmobility startTime 1988
scalar Thesis.node[845].veinsmobility totalTime 12
scalar Thesis.node[845].veinsmobility stopTime 2000
scalar Thesis.node[845].veinsmobility minSpeed 3.3821367712465
scalar Thesis.node[845].veinsmobility maxSpeed 8.3713082525003
scalar Thesis.node[845].veinsmobility totalDistance 74.685388430109
scalar Thesis.node[845].veinsmobility totalCO2Emission 30.590526259387
scalar Thesis.node[846].appl generatedWSMs 0
scalar Thesis.node[846].appl receivedWSMs 0
scalar Thesis.node[846].appl generatedBSMs 0
scalar Thesis.node[846].appl receivedBSMs 0
scalar Thesis.node[846].appl generatedWSAs 0
scalar Thesis.node[846].appl receivedWSAs 0
scalar Thesis.node[846].nic.phy80211p busyTime 0
scalar Thesis.node[846].nic.mac1609_4 ReceivedUnicastPackets 0
scalar Thesis.node[846].nic.mac1609_4 ReceivedBroadcasts 0
scalar Thesis.node[846].nic.mac1609_4 SentPackets 0
scalar Thesis.node[846].nic.mac1609_4 SentAcknowledgements 0
scalar Thesis.node[846].nic.mac1609_4 SNIRLostPackets 0
scalar Thesis.node[846].nic.mac1609_4 RXTXLostPackets 0
scalar Thesis.node[846].nic.mac1609_4 TotalLostPackets 0
scalar Thesis.node[846].nic.mac1609_4 DroppedPacketsInMac 0
scalar Thesis.node[846].nic.mac1609_4 TooLittleTime 0
scalar Thesis.node[846].nic.mac1609_4 TimesIntoBackoff 0
scalar Thesis.node[846].nic.mac1609_4 SlotsBackoff 0
scalar Thesis.node[846].nic.mac1609_4 NumInternalContention 0
scalar Thesis.node[846].nic.mac1609_4 totalBusyTime 0
scalar Thesis.node[846].veinsmobility startTime 1990
scalar Thesis.node[846].veinsmobility totalTime 10
scalar Thesis.node[846].veinsmobility stopTime 2000
scalar Thesis.node[846].veinsmobility minSpeed 3.0653885257233
scalar Thesis.node[846].veinsmobility maxSpeed 14.891350161874
scalar Thesis.node[846].veinsmobility totalDistance 100.82791877601
scalar Thesis.node[846].veinsmobility totalCO2Emission 44.688418951785
scalar Thesis.node[847].appl generatedWSMs 0
scalar Thesis.node[847].appl receivedWSMs 1
scalar Thesis.node[847].appl generatedBSMs 0
scalar Thesis.node[847].appl receivedBSMs 0
scalar Thesis.node[847].appl generatedWSAs 0
scalar Thesis.node[847].appl receivedWSAs 0
scalar Thesis.node[847].nic.phy80211p busyTime 3.8666666666667e-005
scalar Thesis.node[847].nic.mac1609_4 ReceivedUnicastPackets 0
scalar Thesis.node[847].nic.mac1609_4 ReceivedBroadcasts 1
scalar Thesis.node[847].nic.mac1609_4 SentPackets 0
scalar Thesis.node[847].nic.mac1609_4 SentAcknowledgements 0
scalar Thesis.node[847].nic.mac1609_4 SNIRLostPackets 0
scalar Thesis.node[847].nic.mac1609_4 RXTXLostPackets 0
scalar Thesis.node[847].nic.mac1609_4 TotalLostPackets 0
scalar Thesis.node[847].nic.mac1609_4 DroppedPacketsInMac 0
scalar Thesis.node[847].nic.mac1609_4 TooLittleTime 0
scalar Thesis.node[847].nic.mac1609_4 TimesIntoBackoff 0
scalar Thesis.node[847].nic.mac1609_4 SlotsBackoff 0
scalar Thesis.node[847].nic.mac1609_4 NumInternalContention 0
scalar Thesis.node[847].nic.mac1609_4 totalBusyTime 0.000232
scalar Thesis.node[847].veinsmobility startTime 1994
scalar Thesis.node[847].veinsmobility totalTime 6
scalar Thesis.node[847].veinsmobility stopTime 2000
scalar Thesis.node[847].veinsmobility minSpeed 3.3774912470105
scalar Thesis.node[847].veinsmobility maxSpeed 12.526314194189
scalar Thesis.node[847].veinsmobility totalDistance 43.456059979722
scalar Thesis.node[847].veinsmobility totalCO2Emission 27.773313765888
scalar Thesis.node[848].appl generatedWSMs 0
scalar Thesis.node[848].appl receivedWSMs 1
scalar Thesis.node[848].appl generatedBSMs 0
scalar Thesis.node[848].appl receivedBSMs 0
scalar Thesis.node[848].appl generatedWSAs 0
scalar Thesis.node[848].appl receivedWSAs 0
scalar Thesis.node[848].nic.phy80211p busyTime 5.8e-005
scalar Thesis.node[848].nic.mac1609_4 ReceivedUnicastPackets 0
scalar Thesis.node[848].nic.mac1609_4 ReceivedBroadcasts 1
scalar Thesis.node[848].nic.mac1609_4 SentPackets 0
scalar Thesis.node[848].nic.mac1609_4 SentAcknowledgements 0
scalar Thesis.node[848].nic.mac1609_4 SNIRLostPackets 0
scalar Thesis.node[848].nic.mac1609_4 RXTXLostPackets 0
scalar Thesis.node[848].nic.mac1609_4 TotalLostPackets 0
scalar Thesis.node[848].nic.mac1609_4 DroppedPacketsInMac 0
scalar Thesis.node[848].nic.mac1609_4 TooLittleTime 0
scalar Thesis.node[848].nic.mac1609_4 TimesIntoBackoff 0
scalar Thesis.node[848].nic.mac1609_4 SlotsBackoff 0
scalar Thesis.node[848].nic.mac1609_4 NumInternalContention 0
scalar Thesis.node[848].nic.mac1609_4 totalBusyTime 0.000232
scalar Thesis.node[848].veinsmobility startTime 1996
scalar Thesis.node[848].veinsmobility totalTime 4
scalar Thesis.node[848].veinsmobility stopTime 2000
scalar Thesis.node[848].veinsmobility minSpeed 3.0393100155944
scalar Thesis.node[848].veinsmobility maxSpeed 7.8247111476305
scalar Thesis.node[848].veinsmobility totalDistance 20.023920956937
scalar Thesis.node[848].veinsmobility totalCO2Emission 11.636228804229
scalar Thesis.node[849].appl generatedWSMs 0
scalar Thesis.node[849].appl receivedWSMs 0
scalar Thesis.node[849].appl generatedBSMs 0
scalar Thesis.node[849].appl receivedBSMs 0
scalar Thesis.node[849].appl generatedWSAs 0
scalar Thesis.node[849].appl receivedWSAs 0
scalar Thesis.node[849].nic.phy80211p busyTime 0
scalar Thesis.node[849].nic.mac1609_4 ReceivedUnicastPackets 0
scalar Thesis.node[849].nic.mac1609_4 ReceivedBroadcasts 0
scalar Thesis.node[849].nic.mac1609_4 SentPackets 0
scalar Thesis.node[849].nic.mac1609_4 SentAcknowledgements 0
scalar Thesis.node[849].nic.mac1609_4 SNIRLostPackets 0
scalar Thesis.node[849].nic.mac1609_4 RXTXLostPackets 0
scalar Thesis.node[849].nic.mac1609_4 TotalLostPackets 0
scalar Thesis.node[849].nic.mac1609_4 DroppedPacketsInMac 0
scalar Thesis.node[849].nic.mac1609_4 TooLittleTime 0
scalar Thesis.node[849].nic.mac1609_4 TimesIntoBackoff 0
scalar Thesis.node[849].nic.mac1609_4 SlotsBackoff 0
scalar Thesis.node[849].nic.mac1609_4 NumInternalContention 0
scalar Thesis.node[849].nic.mac1609_4 totalBusyTime 0
scalar Thesis.node[849].veinsmobility startTime 1998
scalar Thesis.node[849].veinsmobility totalTime 2
scalar Thesis.node[849].veinsmobility stopTime 2000
scalar Thesis.node[849].veinsmobility minSpeed 2.9563417319315
scalar Thesis.node[849].veinsmobility maxSpeed 5.121436707919
scalar Thesis.node[849].veinsmobility totalDistance 6.1804339785572
scalar Thesis.node[849].veinsmobility totalCO2Emission 4.0417710803118
scalar Thesis.node[850].appl generatedWSMs 0
scalar Thesis.node[850].appl receivedWSMs 0
scalar Thesis.node[850].appl generatedBSMs 0
scalar Thesis.node[850].appl receivedBSMs 0
scalar Thesis.node[850].appl generatedWSAs 0
scalar Thesis.node[850].appl receivedWSAs 0
scalar Thesis.node[850].nic.phy80211p busyTime nan
scalar Thesis.node[850].nic.mac1609_4 ReceivedUnicastPackets 0
scalar Thesis.node[850].nic.mac1609_4 ReceivedBroadcasts 0
scalar Thesis.node[850].nic.mac1609_4 SentPackets 0
scalar Thesis.node[850].nic.mac1609_4 SentAcknowledgements 0
scalar Thesis.node[850].nic.mac1609_4 SNIRLostPackets 0
scalar Thesis.node[850].nic.mac1609_4 RXTXLostPackets 0
scalar Thesis.node[850].nic.mac1609_4 TotalLostPackets 0
scalar Thesis.node[850].nic.mac1609_4 DroppedPacketsInMac 0
scalar Thesis.node[850].nic.mac1609_4 TooLittleTime 0
scalar Thesis.node[850].nic.mac1609_4 TimesIntoBackoff 0
scalar Thesis.node[850].nic.mac1609_4 SlotsBackoff 0
scalar Thesis.node[850].nic.mac1609_4 NumInternalContention 0
scalar Thesis.node[850].nic.mac1609_4 totalBusyTime 0
scalar Thesis.node[850].veinsmobility startTime 2000
scalar Thesis.node[850].veinsmobility totalTime 0
scalar Thesis.node[850].veinsmobility stopTime 2000
scalar Thesis.node[850].veinsmobility totalDistance 0
scalar Thesis.node[850].veinsmobility totalCO2Emission 0
scalar Thesis.manager roiArea 0
scalar Thesis.rsu[0].appl generatedWSMs 0
scalar Thesis.rsu[0].appl receivedWSMs 4936
scalar Thesis.rsu[0].appl generatedBSMs 38
scalar Thesis.rsu[0].appl receivedBSMs 132
scalar Thesis.rsu[0].appl generatedWSAs 0
scalar Thesis.rsu[0].appl receivedWSAs 0
scalar Thesis.rsu[0].nic.phy80211p busyTime 0.00060240800000002
scalar Thesis.rsu[0].nic.mac1609_4 ReceivedUnicastPackets 0
scalar Thesis.rsu[0].nic.mac1609_4 ReceivedBroadcasts 5068
scalar Thesis.rsu[0].nic.mac1609_4 SentPackets 38
scalar Thesis.rsu[0].nic.mac1609_4 SentAcknowledgements 0
scalar Thesis.rsu[0].nic.mac1609_4 SNIRLostPackets 198
scalar Thesis.rsu[0].nic.mac1609_4 RXTXLostPackets 0
scalar Thesis.rsu[0].nic.mac1609_4 TotalLostPackets 198
scalar Thesis.rsu[0].nic.mac1609_4 DroppedPacketsInMac 0
scalar Thesis.rsu[0].nic.mac1609_4 TooLittleTime 0
scalar Thesis.rsu[0].nic.mac1609_4 TimesIntoBackoff 38
scalar Thesis.rsu[0].nic.mac1609_4 SlotsBackoff 58
scalar Thesis.rsu[0].nic.mac1609_4 NumInternalContention 0
scalar Thesis.rsu[0].nic.mac1609_4 totalBusyTime 1.183286

