version 2
run General-0-20200730-13:43:51-24812
attr configname General
attr datetime 20200730-13:43:51
attr experiment General
attr inifile omnetpp.ini
attr iterationvars ""
attr iterationvarsf ""
attr measurement ""
attr network globcomm.simulation.Thesis
attr processid 24812
attr repetition 0
attr replication #0
attr resultdir results
attr runnumber 0
attr seedset 0
param **.debug false
param **.coreDebug false
param *.playgroundSizeX 5000m
param *.playgroundSizeY 5000m
param *.playgroundSizeZ 500m
param *.annotations.draw true
param *.manager.updateInterval 1s
param *.manager.host "\"localhost\""
param *.manager.port 9999
param *.manager.autoShutdown true
param *.manager.launchConfig "xmldoc(\"erlangen.launchd.xml\")"
param Thesis.rsu[0].mobility.x 1800
param Thesis.rsu[0].mobility.y 1000
param Thesis.rsu[0].mobility.z 3
param *.rsu[*].applType "\"globcomm.src.RSU11p\""
param *.rsu[*].appl.headerLength "80 bit"
param *.rsu[*].appl.sendBeacons false
param *.rsu[*].appl.dataOnSch false
param *.rsu[*].appl.beaconInterval 1s
param *.rsu[*].appl.beaconUserPriority 7
param *.rsu[*].appl.dataUserPriority 5
param *.connectionManager.sendDirect true
param *.connectionManager.maxInterfDist 400m
param *.connectionManager.drawMaxIntfDist true
param *.**.nic.mac1609_4.useServiceChannel false
param *.**.nic.mac1609_4.txPower 30mW
param *.**.nic.mac1609_4.bitrate 6Mbps
param *.**.nic.phy80211p.sensitivity -89dBm
param *.**.nic.phy80211p.useThermalNoise true
param *.**.nic.phy80211p.thermalNoise -110dBm
param *.**.nic.phy80211p.decider "xmldoc(\"config.xml\")"
param *.**.nic.phy80211p.analogueModels "xmldoc(\"config.xml\")"
param *.**.nic.phy80211p.usePropagationDelay true
param *.**.nic.phy80211p.antenna "xmldoc(\"antenna.xml\", \"/root/Antenna[@id='monopole']\")"
param *.node[*].applType "\"globcomm.src.MyThesisApp\""
param *.node[*].appl.headerLength "80 bit"
param *.node[*].appl.sendBeacons false
param *.node[*].appl.dataOnSch false
param *.node[*].appl.beaconInterval 1s
param *.node[*].veinsmobilityType.debug true
param *.node[*].veinsmobility.x 0
param *.node[*].veinsmobility.y 0
param *.node[*].veinsmobility.z 1.895
param *.node[*].veinsmobility.accidentCount 0
param *.node[*].veinsmobility.accidentStart 75s
param *.node[*].veinsmobility.accidentDuration 50s
param Thesis.manager.numVehicles 5

scalar Thesis.node[15].appl generatedWSMs 4
scalar Thesis.node[15].appl receivedWSMs 21
scalar Thesis.node[15].appl generatedBSMs 1
scalar Thesis.node[15].appl receivedBSMs 4
scalar Thesis.node[15].appl generatedWSAs 0
scalar Thesis.node[15].appl receivedWSAs 0
scalar Thesis.node[15].nic.phy80211p busyTime 0.00010791836734694
scalar Thesis.node[15].nic.mac1609_4 ReceivedUnicastPackets 0
scalar Thesis.node[15].nic.mac1609_4 ReceivedBroadcasts 25
scalar Thesis.node[15].nic.mac1609_4 SentPackets 5
scalar Thesis.node[15].nic.mac1609_4 SentAcknowledgements 0
scalar Thesis.node[15].nic.mac1609_4 SNIRLostPackets 0
scalar Thesis.node[15].nic.mac1609_4 RXTXLostPackets 0
scalar Thesis.node[15].nic.mac1609_4 TotalLostPackets 0
scalar Thesis.node[15].nic.mac1609_4 DroppedPacketsInMac 0
scalar Thesis.node[15].nic.mac1609_4 TooLittleTime 0
scalar Thesis.node[15].nic.mac1609_4 TimesIntoBackoff 5
scalar Thesis.node[15].nic.mac1609_4 SlotsBackoff 8
scalar Thesis.node[15].nic.mac1609_4 NumInternalContention 0
scalar Thesis.node[15].nic.mac1609_4 totalBusyTime 0.006325
scalar Thesis.node[15].veinsmobility startTime 27
scalar Thesis.node[15].veinsmobility totalTime 48
scalar Thesis.node[15].veinsmobility stopTime 76
scalar Thesis.node[15].veinsmobility minSpeed 0
scalar Thesis.node[15].veinsmobility maxSpeed 20.98933895213
scalar Thesis.node[15].veinsmobility totalDistance 377.35896017737
scalar Thesis.node[15].veinsmobility totalCO2Emission 146.76399249837
scalar Thesis.node[2].appl generatedWSMs 6
scalar Thesis.node[2].appl receivedWSMs 25
scalar Thesis.node[2].appl generatedBSMs 1
scalar Thesis.node[2].appl receivedBSMs 5
scalar Thesis.node[2].appl generatedWSAs 0
scalar Thesis.node[2].appl receivedWSAs 0
scalar Thesis.node[2].nic.phy80211p busyTime 6.3838383838384e-005
scalar Thesis.node[2].nic.mac1609_4 ReceivedUnicastPackets 0
scalar Thesis.node[2].nic.mac1609_4 ReceivedBroadcasts 30
scalar Thesis.node[2].nic.mac1609_4 SentPackets 7
scalar Thesis.node[2].nic.mac1609_4 SentAcknowledgements 0
scalar Thesis.node[2].nic.mac1609_4 SNIRLostPackets 0
scalar Thesis.node[2].nic.mac1609_4 RXTXLostPackets 0
scalar Thesis.node[2].nic.mac1609_4 TotalLostPackets 0
scalar Thesis.node[2].nic.mac1609_4 DroppedPacketsInMac 0
scalar Thesis.node[2].nic.mac1609_4 TooLittleTime 0
scalar Thesis.node[2].nic.mac1609_4 TimesIntoBackoff 7
scalar Thesis.node[2].nic.mac1609_4 SlotsBackoff 14
scalar Thesis.node[2].nic.mac1609_4 NumInternalContention 0
scalar Thesis.node[2].nic.mac1609_4 totalBusyTime 0.007823
scalar Thesis.node[2].veinsmobility startTime 3
scalar Thesis.node[2].veinsmobility totalTime 98
scalar Thesis.node[2].veinsmobility stopTime 102
scalar Thesis.node[2].veinsmobility minSpeed 2.7920323958171
scalar Thesis.node[2].veinsmobility maxSpeed 14.556712390777
scalar Thesis.node[2].veinsmobility totalDistance 819.6510234721
scalar Thesis.node[2].veinsmobility totalCO2Emission 268.58968773095
scalar Thesis.node[28].appl generatedWSMs 0
scalar Thesis.node[28].appl receivedWSMs 0
scalar Thesis.node[28].appl generatedBSMs 0
scalar Thesis.node[28].appl receivedBSMs 0
scalar Thesis.node[28].appl generatedWSAs 0
scalar Thesis.node[28].appl receivedWSAs 0
scalar Thesis.node[28].nic.phy80211p busyTime 0
scalar Thesis.node[28].nic.mac1609_4 ReceivedUnicastPackets 0
scalar Thesis.node[28].nic.mac1609_4 ReceivedBroadcasts 0
scalar Thesis.node[28].nic.mac1609_4 SentPackets 0
scalar Thesis.node[28].nic.mac1609_4 SentAcknowledgements 0
scalar Thesis.node[28].nic.mac1609_4 SNIRLostPackets 0
scalar Thesis.node[28].nic.mac1609_4 RXTXLostPackets 0
scalar Thesis.node[28].nic.mac1609_4 TotalLostPackets 0
scalar Thesis.node[28].nic.mac1609_4 DroppedPacketsInMac 0
scalar Thesis.node[28].nic.mac1609_4 TooLittleTime 0
scalar Thesis.node[28].nic.mac1609_4 TimesIntoBackoff 0
scalar Thesis.node[28].nic.mac1609_4 SlotsBackoff 0
scalar Thesis.node[28].nic.mac1609_4 NumInternalContention 0
scalar Thesis.node[28].nic.mac1609_4 totalBusyTime 0
scalar Thesis.node[28].veinsmobility startTime 65
scalar Thesis.node[28].veinsmobility totalTime 38
scalar Thesis.node[28].veinsmobility stopTime 104
scalar Thesis.node[28].veinsmobility minSpeed 2.8097121510317
scalar Thesis.node[28].veinsmobility maxSpeed 26.033890477306
scalar Thesis.node[28].veinsmobility totalDistance 521.23829480651
scalar Thesis.node[28].veinsmobility totalCO2Emission 166.37260266441
scalar Thesis.node[8].appl generatedWSMs 6
scalar Thesis.node[8].appl receivedWSMs 60
scalar Thesis.node[8].appl generatedBSMs 1
scalar Thesis.node[8].appl receivedBSMs 12
scalar Thesis.node[8].appl generatedWSAs 0
scalar Thesis.node[8].appl receivedWSAs 0
scalar Thesis.node[8].nic.phy80211p busyTime 0.00012964102564103
scalar Thesis.node[8].nic.mac1609_4 ReceivedUnicastPackets 0
scalar Thesis.node[8].nic.mac1609_4 ReceivedBroadcasts 72
scalar Thesis.node[8].nic.mac1609_4 SentPackets 7
scalar Thesis.node[8].nic.mac1609_4 SentAcknowledgements 0
scalar Thesis.node[8].nic.mac1609_4 SNIRLostPackets 0
scalar Thesis.node[8].nic.mac1609_4 RXTXLostPackets 0
scalar Thesis.node[8].nic.mac1609_4 TotalLostPackets 0
scalar Thesis.node[8].nic.mac1609_4 DroppedPacketsInMac 0
scalar Thesis.node[8].nic.mac1609_4 TooLittleTime 0
scalar Thesis.node[8].nic.mac1609_4 TimesIntoBackoff 7
scalar Thesis.node[8].nic.mac1609_4 SlotsBackoff 9
scalar Thesis.node[8].nic.mac1609_4 NumInternalContention 0
scalar Thesis.node[8].nic.mac1609_4 totalBusyTime 0.016671
scalar Thesis.node[8].veinsmobility startTime 9
scalar Thesis.node[8].veinsmobility totalTime 116
scalar Thesis.node[8].veinsmobility stopTime 126
scalar Thesis.node[8].veinsmobility minSpeed 0
scalar Thesis.node[8].veinsmobility maxSpeed 12.265322309309
scalar Thesis.node[8].veinsmobility totalDistance 716.74253638838
scalar Thesis.node[8].veinsmobility totalCO2Emission 261.28167619836
scalar Thesis.node[4].appl generatedWSMs 6
scalar Thesis.node[4].appl receivedWSMs 25
scalar Thesis.node[4].appl generatedBSMs 1
scalar Thesis.node[4].appl receivedBSMs 5
scalar Thesis.node[4].appl generatedWSAs 0
scalar Thesis.node[4].appl receivedWSAs 0
scalar Thesis.node[4].nic.phy80211p busyTime 5.1803278688525e-005
scalar Thesis.node[4].nic.mac1609_4 ReceivedUnicastPackets 0
scalar Thesis.node[4].nic.mac1609_4 ReceivedBroadcasts 30
scalar Thesis.node[4].nic.mac1609_4 SentPackets 7
scalar Thesis.node[4].nic.mac1609_4 SentAcknowledgements 0
scalar Thesis.node[4].nic.mac1609_4 SNIRLostPackets 0
scalar Thesis.node[4].nic.mac1609_4 RXTXLostPackets 0
scalar Thesis.node[4].nic.mac1609_4 TotalLostPackets 0
scalar Thesis.node[4].nic.mac1609_4 DroppedPacketsInMac 0
scalar Thesis.node[4].nic.mac1609_4 TooLittleTime 0
scalar Thesis.node[4].nic.mac1609_4 TimesIntoBackoff 7
scalar Thesis.node[4].nic.mac1609_4 SlotsBackoff 6
scalar Thesis.node[4].nic.mac1609_4 NumInternalContention 0
scalar Thesis.node[4].nic.mac1609_4 totalBusyTime 0.007823
scalar Thesis.node[4].veinsmobility startTime 5
scalar Thesis.node[4].veinsmobility totalTime 121
scalar Thesis.node[4].veinsmobility stopTime 127
scalar Thesis.node[4].veinsmobility minSpeed 2.1134941050378
scalar Thesis.node[4].veinsmobility maxSpeed 11.061335619183
scalar Thesis.node[4].veinsmobility totalDistance 821.21782707708
scalar Thesis.node[4].veinsmobility totalCO2Emission 252.98393952952
scalar Thesis.node[7].appl generatedWSMs 7
scalar Thesis.node[7].appl receivedWSMs 33
scalar Thesis.node[7].appl generatedBSMs 1
scalar Thesis.node[7].appl receivedBSMs 7
scalar Thesis.node[7].appl generatedWSAs 0
scalar Thesis.node[7].appl receivedWSAs 0
scalar Thesis.node[7].nic.phy80211p busyTime 6.6539682539682e-005
scalar Thesis.node[7].nic.mac1609_4 ReceivedUnicastPackets 0
scalar Thesis.node[7].nic.mac1609_4 ReceivedBroadcasts 40
scalar Thesis.node[7].nic.mac1609_4 SentPackets 8
scalar Thesis.node[7].nic.mac1609_4 SentAcknowledgements 0
scalar Thesis.node[7].nic.mac1609_4 SNIRLostPackets 0
scalar Thesis.node[7].nic.mac1609_4 RXTXLostPackets 0
scalar Thesis.node[7].nic.mac1609_4 TotalLostPackets 0
scalar Thesis.node[7].nic.mac1609_4 DroppedPacketsInMac 0
scalar Thesis.node[7].nic.mac1609_4 TooLittleTime 0
scalar Thesis.node[7].nic.mac1609_4 TimesIntoBackoff 8
scalar Thesis.node[7].nic.mac1609_4 SlotsBackoff 11
scalar Thesis.node[7].nic.mac1609_4 NumInternalContention 0
scalar Thesis.node[7].nic.mac1609_4 totalBusyTime 0.01012
scalar Thesis.node[7].veinsmobility startTime 7
scalar Thesis.node[7].veinsmobility totalTime 125
scalar Thesis.node[7].veinsmobility stopTime 133
scalar Thesis.node[7].veinsmobility minSpeed 0
scalar Thesis.node[7].veinsmobility maxSpeed 20.128553509623
scalar Thesis.node[7].veinsmobility totalDistance 1116.6384530386
scalar Thesis.node[7].veinsmobility totalCO2Emission 370.81428652283
scalar Thesis.node[14].appl generatedWSMs 5
scalar Thesis.node[14].appl receivedWSMs 34
scalar Thesis.node[14].appl generatedBSMs 1
scalar Thesis.node[14].appl receivedBSMs 7
scalar Thesis.node[14].appl generatedWSAs 0
scalar Thesis.node[14].appl receivedWSAs 0
scalar Thesis.node[14].nic.phy80211p busyTime 7.6247787610619e-005
scalar Thesis.node[14].nic.mac1609_4 ReceivedUnicastPackets 0
scalar Thesis.node[14].nic.mac1609_4 ReceivedBroadcasts 41
scalar Thesis.node[14].nic.mac1609_4 SentPackets 6
scalar Thesis.node[14].nic.mac1609_4 SentAcknowledgements 0
scalar Thesis.node[14].nic.mac1609_4 SNIRLostPackets 0
scalar Thesis.node[14].nic.mac1609_4 RXTXLostPackets 0
scalar Thesis.node[14].nic.mac1609_4 TotalLostPackets 0
scalar Thesis.node[14].nic.mac1609_4 DroppedPacketsInMac 0
scalar Thesis.node[14].nic.mac1609_4 TooLittleTime 0
scalar Thesis.node[14].nic.mac1609_4 TimesIntoBackoff 8
scalar Thesis.node[14].nic.mac1609_4 SlotsBackoff 17
scalar Thesis.node[14].nic.mac1609_4 NumInternalContention 0
scalar Thesis.node[14].nic.mac1609_4 totalBusyTime 0.009886
scalar Thesis.node[14].veinsmobility startTime 23
scalar Thesis.node[14].veinsmobility totalTime 112
scalar Thesis.node[14].veinsmobility stopTime 136
scalar Thesis.node[14].veinsmobility minSpeed 0
scalar Thesis.node[14].veinsmobility maxSpeed 16.506884282042
scalar Thesis.node[14].veinsmobility totalDistance 875.4171314131
scalar Thesis.node[14].veinsmobility totalCO2Emission 301.96042585695
scalar Thesis.node[20].appl generatedWSMs 5
scalar Thesis.node[20].appl receivedWSMs 78
scalar Thesis.node[20].appl generatedBSMs 1
scalar Thesis.node[20].appl receivedBSMs 14
scalar Thesis.node[20].appl generatedWSAs 0
scalar Thesis.node[20].appl receivedWSAs 0
scalar Thesis.node[20].nic.phy80211p busyTime 0.00020581052631579
scalar Thesis.node[20].nic.mac1609_4 ReceivedUnicastPackets 0
scalar Thesis.node[20].nic.mac1609_4 ReceivedBroadcasts 92
scalar Thesis.node[20].nic.mac1609_4 SentPackets 6
scalar Thesis.node[20].nic.mac1609_4 SentAcknowledgements 0
scalar Thesis.node[20].nic.mac1609_4 SNIRLostPackets 0
scalar Thesis.node[20].nic.mac1609_4 RXTXLostPackets 0
scalar Thesis.node[20].nic.mac1609_4 TotalLostPackets 0
scalar Thesis.node[20].nic.mac1609_4 DroppedPacketsInMac 0
scalar Thesis.node[20].nic.mac1609_4 TooLittleTime 0
scalar Thesis.node[20].nic.mac1609_4 TimesIntoBackoff 6
scalar Thesis.node[20].nic.mac1609_4 SlotsBackoff 9
scalar Thesis.node[20].nic.mac1609_4 NumInternalContention 0
scalar Thesis.node[20].nic.mac1609_4 totalBusyTime 0.020822
scalar Thesis.node[20].veinsmobility startTime 49
scalar Thesis.node[20].veinsmobility totalTime 94
scalar Thesis.node[20].veinsmobility stopTime 144
scalar Thesis.node[20].veinsmobility minSpeed 0
scalar Thesis.node[20].veinsmobility maxSpeed 14.683198261043
scalar Thesis.node[20].veinsmobility totalDistance 878.391825108
scalar Thesis.node[20].veinsmobility totalCO2Emission 272.27793226386
scalar Thesis.node[12].appl generatedWSMs 5
scalar Thesis.node[12].appl receivedWSMs 122
scalar Thesis.node[12].appl generatedBSMs 1
scalar Thesis.node[12].appl receivedBSMs 19
scalar Thesis.node[12].appl generatedWSAs 0
scalar Thesis.node[12].appl receivedWSAs 0
scalar Thesis.node[12].nic.phy80211p busyTime 0.00022597014925373
scalar Thesis.node[12].nic.mac1609_4 ReceivedUnicastPackets 0
scalar Thesis.node[12].nic.mac1609_4 ReceivedBroadcasts 141
scalar Thesis.node[12].nic.mac1609_4 SentPackets 6
scalar Thesis.node[12].nic.mac1609_4 SentAcknowledgements 0
scalar Thesis.node[12].nic.mac1609_4 SNIRLostPackets 0
scalar Thesis.node[12].nic.mac1609_4 RXTXLostPackets 0
scalar Thesis.node[12].nic.mac1609_4 TotalLostPackets 0
scalar Thesis.node[12].nic.mac1609_4 DroppedPacketsInMac 0
scalar Thesis.node[12].nic.mac1609_4 TooLittleTime 0
scalar Thesis.node[12].nic.mac1609_4 TimesIntoBackoff 6
scalar Thesis.node[12].nic.mac1609_4 SlotsBackoff 10
scalar Thesis.node[12].nic.mac1609_4 NumInternalContention 0
scalar Thesis.node[12].nic.mac1609_4 totalBusyTime 0.03155
scalar Thesis.node[12].veinsmobility startTime 17
scalar Thesis.node[12].veinsmobility totalTime 133
scalar Thesis.node[12].veinsmobility stopTime 151
scalar Thesis.node[12].veinsmobility minSpeed 0
scalar Thesis.node[12].veinsmobility maxSpeed 19.783047868301
scalar Thesis.node[12].veinsmobility totalDistance 1206.1684826956
scalar Thesis.node[12].veinsmobility totalCO2Emission 436.18874334913
scalar Thesis.node[38].appl generatedWSMs 6
scalar Thesis.node[38].appl receivedWSMs 40
scalar Thesis.node[38].appl generatedBSMs 1
scalar Thesis.node[38].appl receivedBSMs 6
scalar Thesis.node[38].appl generatedWSAs 0
scalar Thesis.node[38].appl receivedWSAs 0
scalar Thesis.node[38].nic.phy80211p busyTime 0.00013567123287671
scalar Thesis.node[38].nic.mac1609_4 ReceivedUnicastPackets 0
scalar Thesis.node[38].nic.mac1609_4 ReceivedBroadcasts 46
scalar Thesis.node[38].nic.mac1609_4 SentPackets 7
scalar Thesis.node[38].nic.mac1609_4 SentAcknowledgements 0
scalar Thesis.node[38].nic.mac1609_4 SNIRLostPackets 0
scalar Thesis.node[38].nic.mac1609_4 RXTXLostPackets 0
scalar Thesis.node[38].nic.mac1609_4 TotalLostPackets 0
scalar Thesis.node[38].nic.mac1609_4 DroppedPacketsInMac 0
scalar Thesis.node[38].nic.mac1609_4 TooLittleTime 0
scalar Thesis.node[38].nic.mac1609_4 TimesIntoBackoff 7
scalar Thesis.node[38].nic.mac1609_4 SlotsBackoff 15
scalar Thesis.node[38].nic.mac1609_4 NumInternalContention 0
scalar Thesis.node[38].nic.mac1609_4 totalBusyTime 0.011407
scalar Thesis.node[38].veinsmobility startTime 89
scalar Thesis.node[38].veinsmobility totalTime 72
scalar Thesis.node[38].veinsmobility stopTime 162
scalar Thesis.node[38].veinsmobility minSpeed 0
scalar Thesis.node[38].veinsmobility maxSpeed 14.299444689486
scalar Thesis.node[38].veinsmobility totalDistance 573.66223795184
scalar Thesis.node[38].veinsmobility totalCO2Emission 193.66564741129
scalar Thesis.node[34].appl generatedWSMs 5
scalar Thesis.node[34].appl receivedWSMs 24
scalar Thesis.node[34].appl generatedBSMs 1
scalar Thesis.node[34].appl receivedBSMs 5
scalar Thesis.node[34].appl generatedWSAs 0
scalar Thesis.node[34].appl receivedWSAs 0
scalar Thesis.node[34].nic.phy80211p busyTime 6.9977011494253e-005
scalar Thesis.node[34].nic.mac1609_4 ReceivedUnicastPackets 0
scalar Thesis.node[34].nic.mac1609_4 ReceivedBroadcasts 29
scalar Thesis.node[34].nic.mac1609_4 SentPackets 6
scalar Thesis.node[34].nic.mac1609_4 SentAcknowledgements 0
scalar Thesis.node[34].nic.mac1609_4 SNIRLostPackets 0
scalar Thesis.node[34].nic.mac1609_4 RXTXLostPackets 0
scalar Thesis.node[34].nic.mac1609_4 TotalLostPackets 0
scalar Thesis.node[34].nic.mac1609_4 DroppedPacketsInMac 0
scalar Thesis.node[34].nic.mac1609_4 TooLittleTime 0
scalar Thesis.node[34].nic.mac1609_4 TimesIntoBackoff 6
scalar Thesis.node[34].nic.mac1609_4 SlotsBackoff 10
scalar Thesis.node[34].nic.mac1609_4 NumInternalContention 0
scalar Thesis.node[34].nic.mac1609_4 totalBusyTime 0.007358
scalar Thesis.node[34].veinsmobility startTime 81
scalar Thesis.node[34].veinsmobility totalTime 86
scalar Thesis.node[34].veinsmobility stopTime 168
scalar Thesis.node[34].veinsmobility minSpeed 2.5533851011719
scalar Thesis.node[34].veinsmobility maxSpeed 18.799394710121
scalar Thesis.node[34].veinsmobility totalDistance 877.99101423538
scalar Thesis.node[34].veinsmobility totalCO2Emission 331.24905015571
scalar Thesis.node[36].appl generatedWSMs 7
scalar Thesis.node[36].appl receivedWSMs 82
scalar Thesis.node[36].appl generatedBSMs 1
scalar Thesis.node[36].appl receivedBSMs 11
scalar Thesis.node[36].appl generatedWSAs 0
scalar Thesis.node[36].appl receivedWSAs 0
scalar Thesis.node[36].nic.phy80211p busyTime 0.00022924444444444
scalar Thesis.node[36].nic.mac1609_4 ReceivedUnicastPackets 0
scalar Thesis.node[36].nic.mac1609_4 ReceivedBroadcasts 93
scalar Thesis.node[36].nic.mac1609_4 SentPackets 8
scalar Thesis.node[36].nic.mac1609_4 SentAcknowledgements 0
scalar Thesis.node[36].nic.mac1609_4 SNIRLostPackets 2
scalar Thesis.node[36].nic.mac1609_4 RXTXLostPackets 0
scalar Thesis.node[36].nic.mac1609_4 TotalLostPackets 2
scalar Thesis.node[36].nic.mac1609_4 DroppedPacketsInMac 0
scalar Thesis.node[36].nic.mac1609_4 TooLittleTime 0
scalar Thesis.node[36].nic.mac1609_4 TimesIntoBackoff 9
scalar Thesis.node[36].nic.mac1609_4 SlotsBackoff 9
scalar Thesis.node[36].nic.mac1609_4 NumInternalContention 0
scalar Thesis.node[36].nic.mac1609_4 totalBusyTime 0.022136
scalar Thesis.node[36].veinsmobility startTime 85
scalar Thesis.node[36].veinsmobility totalTime 89
scalar Thesis.node[36].veinsmobility stopTime 175
scalar Thesis.node[36].veinsmobility minSpeed 0
scalar Thesis.node[36].veinsmobility maxSpeed 11.702314377772
scalar Thesis.node[36].veinsmobility totalDistance 631.20804630072
scalar Thesis.node[36].veinsmobility totalCO2Emission 188.58611933404
scalar Thesis.node[42].appl generatedWSMs 6
scalar Thesis.node[42].appl receivedWSMs 72
scalar Thesis.node[42].appl generatedBSMs 1
scalar Thesis.node[42].appl receivedBSMs 10
scalar Thesis.node[42].appl generatedWSAs 0
scalar Thesis.node[42].appl receivedWSAs 0
scalar Thesis.node[42].nic.phy80211p busyTime 0.00023048101265823
scalar Thesis.node[42].nic.mac1609_4 ReceivedUnicastPackets 0
scalar Thesis.node[42].nic.mac1609_4 ReceivedBroadcasts 82
scalar Thesis.node[42].nic.mac1609_4 SentPackets 7
scalar Thesis.node[42].nic.mac1609_4 SentAcknowledgements 0
scalar Thesis.node[42].nic.mac1609_4 SNIRLostPackets 2
scalar Thesis.node[42].nic.mac1609_4 RXTXLostPackets 0
scalar Thesis.node[42].nic.mac1609_4 TotalLostPackets 2
scalar Thesis.node[42].nic.mac1609_4 DroppedPacketsInMac 0
scalar Thesis.node[42].nic.mac1609_4 TooLittleTime 0
scalar Thesis.node[42].nic.mac1609_4 TimesIntoBackoff 7
scalar Thesis.node[42].nic.mac1609_4 SlotsBackoff 7
scalar Thesis.node[42].nic.mac1609_4 NumInternalContention 0
scalar Thesis.node[42].nic.mac1609_4 totalBusyTime 0.019479
scalar Thesis.node[42].veinsmobility startTime 99
scalar Thesis.node[42].veinsmobility totalTime 78
scalar Thesis.node[42].veinsmobility stopTime 178
scalar Thesis.node[42].veinsmobility minSpeed 0
scalar Thesis.node[42].veinsmobility maxSpeed 19.978635574667
scalar Thesis.node[42].veinsmobility totalDistance 746.77884468346
scalar Thesis.node[42].veinsmobility totalCO2Emission 251.41878287382
scalar Thesis.node[9].appl generatedWSMs 4
scalar Thesis.node[9].appl receivedWSMs 142
scalar Thesis.node[9].appl generatedBSMs 1
scalar Thesis.node[9].appl receivedBSMs 21
scalar Thesis.node[9].appl generatedWSAs 0
scalar Thesis.node[9].appl receivedWSAs 0
scalar Thesis.node[9].nic.phy80211p busyTime 0.00020785798816568
scalar Thesis.node[9].nic.mac1609_4 ReceivedUnicastPackets 0
scalar Thesis.node[9].nic.mac1609_4 ReceivedBroadcasts 163
scalar Thesis.node[9].nic.mac1609_4 SentPackets 5
scalar Thesis.node[9].nic.mac1609_4 SentAcknowledgements 0
scalar Thesis.node[9].nic.mac1609_4 SNIRLostPackets 0
scalar Thesis.node[9].nic.mac1609_4 RXTXLostPackets 0
scalar Thesis.node[9].nic.mac1609_4 TotalLostPackets 0
scalar Thesis.node[9].nic.mac1609_4 DroppedPacketsInMac 0
scalar Thesis.node[9].nic.mac1609_4 TooLittleTime 0
scalar Thesis.node[9].nic.mac1609_4 TimesIntoBackoff 5
scalar Thesis.node[9].nic.mac1609_4 SlotsBackoff 10
scalar Thesis.node[9].nic.mac1609_4 NumInternalContention 0
scalar Thesis.node[9].nic.mac1609_4 totalBusyTime 0.036165
scalar Thesis.node[9].veinsmobility startTime 11
scalar Thesis.node[9].veinsmobility totalTime 168
scalar Thesis.node[9].veinsmobility stopTime 180
scalar Thesis.node[9].veinsmobility minSpeed 0
scalar Thesis.node[9].veinsmobility maxSpeed 16.049310768391
scalar Thesis.node[9].veinsmobility totalDistance 1450.3563629731
scalar Thesis.node[9].veinsmobility totalCO2Emission 537.72023363807
scalar Thesis.node[33].appl generatedWSMs 9
scalar Thesis.node[33].appl receivedWSMs 91
scalar Thesis.node[33].appl generatedBSMs 1
scalar Thesis.node[33].appl receivedBSMs 12
scalar Thesis.node[33].appl generatedWSAs 0
scalar Thesis.node[33].appl receivedWSAs 0
scalar Thesis.node[33].nic.phy80211p busyTime 0.00021094339622641
scalar Thesis.node[33].nic.mac1609_4 ReceivedUnicastPackets 0
scalar Thesis.node[33].nic.mac1609_4 ReceivedBroadcasts 103
scalar Thesis.node[33].nic.mac1609_4 SentPackets 10
scalar Thesis.node[33].nic.mac1609_4 SentAcknowledgements 0
scalar Thesis.node[33].nic.mac1609_4 SNIRLostPackets 0
scalar Thesis.node[33].nic.mac1609_4 RXTXLostPackets 0
scalar Thesis.node[33].nic.mac1609_4 TotalLostPackets 0
scalar Thesis.node[33].nic.mac1609_4 DroppedPacketsInMac 0
scalar Thesis.node[33].nic.mac1609_4 TooLittleTime 0
scalar Thesis.node[33].nic.mac1609_4 TimesIntoBackoff 11
scalar Thesis.node[33].nic.mac1609_4 SlotsBackoff 18
scalar Thesis.node[33].nic.mac1609_4 NumInternalContention 0
scalar Thesis.node[33].nic.mac1609_4 totalBusyTime 0.024562
scalar Thesis.node[33].veinsmobility startTime 79
scalar Thesis.node[33].veinsmobility totalTime 105
scalar Thesis.node[33].veinsmobility stopTime 185
scalar Thesis.node[33].veinsmobility minSpeed 2.1135284113432
scalar Thesis.node[33].veinsmobility maxSpeed 18.149131614294
scalar Thesis.node[33].veinsmobility totalDistance 994.33970114605
scalar Thesis.node[33].veinsmobility totalCO2Emission 354.75390367484
scalar Thesis.node[11].appl generatedWSMs 5
scalar Thesis.node[11].appl receivedWSMs 83
scalar Thesis.node[11].appl generatedBSMs 1
scalar Thesis.node[11].appl receivedBSMs 13
scalar Thesis.node[11].appl generatedWSAs 0
scalar Thesis.node[11].appl receivedWSAs 0
scalar Thesis.node[11].nic.phy80211p busyTime 0.00011261202185792
scalar Thesis.node[11].nic.mac1609_4 ReceivedUnicastPackets 0
scalar Thesis.node[11].nic.mac1609_4 ReceivedBroadcasts 96
scalar Thesis.node[11].nic.mac1609_4 SentPackets 6
scalar Thesis.node[11].nic.mac1609_4 SentAcknowledgements 0
scalar Thesis.node[11].nic.mac1609_4 SNIRLostPackets 0
scalar Thesis.node[11].nic.mac1609_4 RXTXLostPackets 0
scalar Thesis.node[11].nic.mac1609_4 TotalLostPackets 0
scalar Thesis.node[11].nic.mac1609_4 DroppedPacketsInMac 0
scalar Thesis.node[11].nic.mac1609_4 TooLittleTime 0
scalar Thesis.node[11].nic.mac1609_4 TimesIntoBackoff 6
scalar Thesis.node[11].nic.mac1609_4 SlotsBackoff 10
scalar Thesis.node[11].nic.mac1609_4 NumInternalContention 0
scalar Thesis.node[11].nic.mac1609_4 totalBusyTime 0.021878
scalar Thesis.node[11].veinsmobility startTime 15
scalar Thesis.node[11].veinsmobility totalTime 182
scalar Thesis.node[11].veinsmobility stopTime 198
scalar Thesis.node[11].veinsmobility minSpeed 0
scalar Thesis.node[11].veinsmobility maxSpeed 13.986373998727
scalar Thesis.node[11].veinsmobility totalDistance 1194.376223554
scalar Thesis.node[11].veinsmobility totalCO2Emission 366.33545170465
scalar Thesis.node[30].appl generatedWSMs 5
scalar Thesis.node[30].appl receivedWSMs 39
scalar Thesis.node[30].appl generatedBSMs 1
scalar Thesis.node[30].appl receivedBSMs 11
scalar Thesis.node[30].appl generatedWSAs 0
scalar Thesis.node[30].appl receivedWSAs 0
scalar Thesis.node[30].nic.phy80211p busyTime 7.9007751937984e-005
scalar Thesis.node[30].nic.mac1609_4 ReceivedUnicastPackets 0
scalar Thesis.node[30].nic.mac1609_4 ReceivedBroadcasts 50
scalar Thesis.node[30].nic.mac1609_4 SentPackets 6
scalar Thesis.node[30].nic.mac1609_4 SentAcknowledgements 0
scalar Thesis.node[30].nic.mac1609_4 SNIRLostPackets 0
scalar Thesis.node[30].nic.mac1609_4 RXTXLostPackets 0
scalar Thesis.node[30].nic.mac1609_4 TotalLostPackets 0
scalar Thesis.node[30].nic.mac1609_4 DroppedPacketsInMac 0
scalar Thesis.node[30].nic.mac1609_4 TooLittleTime 0
scalar Thesis.node[30].nic.mac1609_4 TimesIntoBackoff 6
scalar Thesis.node[30].nic.mac1609_4 SlotsBackoff 11
scalar Thesis.node[30].nic.mac1609_4 NumInternalContention 0
scalar Thesis.node[30].nic.mac1609_4 totalBusyTime 0.011462
scalar Thesis.node[30].veinsmobility startTime 69
scalar Thesis.node[30].veinsmobility totalTime 128
scalar Thesis.node[30].veinsmobility stopTime 198
scalar Thesis.node[30].veinsmobility minSpeed 0
scalar Thesis.node[30].veinsmobility maxSpeed 24.062500947901
scalar Thesis.node[30].veinsmobility totalDistance 950.84704338837
scalar Thesis.node[30].veinsmobility totalCO2Emission 342.94719863063
scalar Thesis.node[16].appl generatedWSMs 3
scalar Thesis.node[16].appl receivedWSMs 99
scalar Thesis.node[16].appl generatedBSMs 1
scalar Thesis.node[16].appl receivedBSMs 17
scalar Thesis.node[16].appl generatedWSAs 0
scalar Thesis.node[16].appl receivedWSAs 0
scalar Thesis.node[16].nic.phy80211p busyTime 0.00014216091954023
scalar Thesis.node[16].nic.mac1609_4 ReceivedUnicastPackets 0
scalar Thesis.node[16].nic.mac1609_4 ReceivedBroadcasts 116
scalar Thesis.node[16].nic.mac1609_4 SentPackets 4
scalar Thesis.node[16].nic.mac1609_4 SentAcknowledgements 0
scalar Thesis.node[16].nic.mac1609_4 SNIRLostPackets 0
scalar Thesis.node[16].nic.mac1609_4 RXTXLostPackets 0
scalar Thesis.node[16].nic.mac1609_4 TotalLostPackets 0
scalar Thesis.node[16].nic.mac1609_4 DroppedPacketsInMac 0
scalar Thesis.node[16].nic.mac1609_4 TooLittleTime 0
scalar Thesis.node[16].nic.mac1609_4 TimesIntoBackoff 4
scalar Thesis.node[16].nic.mac1609_4 SlotsBackoff 6
scalar Thesis.node[16].nic.mac1609_4 NumInternalContention 0
scalar Thesis.node[16].nic.mac1609_4 totalBusyTime 0.02554
scalar Thesis.node[16].veinsmobility startTime 33
scalar Thesis.node[16].veinsmobility totalTime 173
scalar Thesis.node[16].veinsmobility stopTime 207
scalar Thesis.node[16].veinsmobility minSpeed 0
scalar Thesis.node[16].veinsmobility maxSpeed 16.919508905954
scalar Thesis.node[16].veinsmobility totalDistance 1496.8222165604
scalar Thesis.node[16].veinsmobility totalCO2Emission 480.58810493522
scalar Thesis.node[23].appl generatedWSMs 4
scalar Thesis.node[23].appl receivedWSMs 124
scalar Thesis.node[23].appl generatedBSMs 1
scalar Thesis.node[23].appl receivedBSMs 18
scalar Thesis.node[23].appl generatedWSAs 0
scalar Thesis.node[23].appl receivedWSAs 0
scalar Thesis.node[23].nic.phy80211p busyTime 0.00020177777777778
scalar Thesis.node[23].nic.mac1609_4 ReceivedUnicastPackets 0
scalar Thesis.node[23].nic.mac1609_4 ReceivedBroadcasts 142
scalar Thesis.node[23].nic.mac1609_4 SentPackets 5
scalar Thesis.node[23].nic.mac1609_4 SentAcknowledgements 0
scalar Thesis.node[23].nic.mac1609_4 SNIRLostPackets 1
scalar Thesis.node[23].nic.mac1609_4 RXTXLostPackets 0
scalar Thesis.node[23].nic.mac1609_4 TotalLostPackets 1
scalar Thesis.node[23].nic.mac1609_4 DroppedPacketsInMac 0
scalar Thesis.node[23].nic.mac1609_4 TooLittleTime 0
scalar Thesis.node[23].nic.mac1609_4 TimesIntoBackoff 6
scalar Thesis.node[23].nic.mac1609_4 SlotsBackoff 7
scalar Thesis.node[23].nic.mac1609_4 NumInternalContention 0
scalar Thesis.node[23].nic.mac1609_4 totalBusyTime 0.031909
scalar Thesis.node[23].veinsmobility startTime 55
scalar Thesis.node[23].veinsmobility totalTime 152
scalar Thesis.node[23].veinsmobility stopTime 208
scalar Thesis.node[23].veinsmobility minSpeed 0
scalar Thesis.node[23].veinsmobility maxSpeed 16.958168634095
scalar Thesis.node[23].veinsmobility totalDistance 1184.2675984901
scalar Thesis.node[23].veinsmobility totalCO2Emission 388.91946737464
scalar Thesis.node[21].appl generatedWSMs 6
scalar Thesis.node[21].appl receivedWSMs 97
scalar Thesis.node[21].appl generatedBSMs 1
scalar Thesis.node[21].appl receivedBSMs 15
scalar Thesis.node[21].appl generatedWSAs 0
scalar Thesis.node[21].appl receivedWSAs 0
scalar Thesis.node[21].nic.phy80211p busyTime 0.00014513609467456
scalar Thesis.node[21].nic.mac1609_4 ReceivedUnicastPackets 0
scalar Thesis.node[21].nic.mac1609_4 ReceivedBroadcasts 112
scalar Thesis.node[21].nic.mac1609_4 SentPackets 7
scalar Thesis.node[21].nic.mac1609_4 SentAcknowledgements 0
scalar Thesis.node[21].nic.mac1609_4 SNIRLostPackets 2
scalar Thesis.node[21].nic.mac1609_4 RXTXLostPackets 0
scalar Thesis.node[21].nic.mac1609_4 TotalLostPackets 2
scalar Thesis.node[21].nic.mac1609_4 DroppedPacketsInMac 0
scalar Thesis.node[21].nic.mac1609_4 TooLittleTime 0
scalar Thesis.node[21].nic.mac1609_4 TimesIntoBackoff 7
scalar Thesis.node[21].nic.mac1609_4 SlotsBackoff 17
scalar Thesis.node[21].nic.mac1609_4 NumInternalContention 0
scalar Thesis.node[21].nic.mac1609_4 totalBusyTime 0.025799
scalar Thesis.node[21].veinsmobility startTime 51
scalar Thesis.node[21].veinsmobility totalTime 168
scalar Thesis.node[21].veinsmobility stopTime 220
scalar Thesis.node[21].veinsmobility minSpeed 0
scalar Thesis.node[21].veinsmobility maxSpeed 18.172348327473
scalar Thesis.node[21].veinsmobility totalDistance 992.23684670681
scalar Thesis.node[21].veinsmobility totalCO2Emission 346.64858257993
scalar Thesis.node[29].appl generatedWSMs 4
scalar Thesis.node[29].appl receivedWSMs 65
scalar Thesis.node[29].appl generatedBSMs 1
scalar Thesis.node[29].appl receivedBSMs 12
scalar Thesis.node[29].appl generatedWSAs 0
scalar Thesis.node[29].appl receivedWSAs 0
scalar Thesis.node[29].nic.phy80211p busyTime 0.00010534193548387
scalar Thesis.node[29].nic.mac1609_4 ReceivedUnicastPackets 0
scalar Thesis.node[29].nic.mac1609_4 ReceivedBroadcasts 77
scalar Thesis.node[29].nic.mac1609_4 SentPackets 5
scalar Thesis.node[29].nic.mac1609_4 SentAcknowledgements 0
scalar Thesis.node[29].nic.mac1609_4 SNIRLostPackets 0
scalar Thesis.node[29].nic.mac1609_4 RXTXLostPackets 0
scalar Thesis.node[29].nic.mac1609_4 TotalLostPackets 0
scalar Thesis.node[29].nic.mac1609_4 DroppedPacketsInMac 0
scalar Thesis.node[29].nic.mac1609_4 TooLittleTime 0
scalar Thesis.node[29].nic.mac1609_4 TimesIntoBackoff 5
scalar Thesis.node[29].nic.mac1609_4 SlotsBackoff 8
scalar Thesis.node[29].nic.mac1609_4 NumInternalContention 0
scalar Thesis.node[29].nic.mac1609_4 totalBusyTime 0.017365
scalar Thesis.node[29].veinsmobility startTime 67
scalar Thesis.node[29].veinsmobility totalTime 154
scalar Thesis.node[29].veinsmobility stopTime 222
scalar Thesis.node[29].veinsmobility minSpeed 0
scalar Thesis.node[29].veinsmobility maxSpeed 15.070804111276
scalar Thesis.node[29].veinsmobility totalDistance 1106.6822717578
scalar Thesis.node[29].veinsmobility totalCO2Emission 358.10899570079
scalar Thesis.node[32].appl generatedWSMs 9
scalar Thesis.node[32].appl receivedWSMs 99
scalar Thesis.node[32].appl generatedBSMs 1
scalar Thesis.node[32].appl receivedBSMs 15
scalar Thesis.node[32].appl generatedWSAs 0
scalar Thesis.node[32].appl receivedWSAs 0
scalar Thesis.node[32].nic.phy80211p busyTime 0.00016352
scalar Thesis.node[32].nic.mac1609_4 ReceivedUnicastPackets 0
scalar Thesis.node[32].nic.mac1609_4 ReceivedBroadcasts 114
scalar Thesis.node[32].nic.mac1609_4 SentPackets 10
scalar Thesis.node[32].nic.mac1609_4 SentAcknowledgements 0
scalar Thesis.node[32].nic.mac1609_4 SNIRLostPackets 0
scalar Thesis.node[32].nic.mac1609_4 RXTXLostPackets 0
scalar Thesis.node[32].nic.mac1609_4 TotalLostPackets 0
scalar Thesis.node[32].nic.mac1609_4 DroppedPacketsInMac 0
scalar Thesis.node[32].nic.mac1609_4 TooLittleTime 0
scalar Thesis.node[32].nic.mac1609_4 TimesIntoBackoff 10
scalar Thesis.node[32].nic.mac1609_4 SlotsBackoff 19
scalar Thesis.node[32].nic.mac1609_4 NumInternalContention 0
scalar Thesis.node[32].nic.mac1609_4 totalBusyTime 0.02673
scalar Thesis.node[32].veinsmobility startTime 75
scalar Thesis.node[32].veinsmobility totalTime 149
scalar Thesis.node[32].veinsmobility stopTime 225
scalar Thesis.node[32].veinsmobility minSpeed 0
scalar Thesis.node[32].veinsmobility maxSpeed 20.128475269518
scalar Thesis.node[32].veinsmobility totalDistance 1463.4149417294
scalar Thesis.node[32].veinsmobility totalCO2Emission 465.31475441331
scalar Thesis.node[19].appl generatedWSMs 5
scalar Thesis.node[19].appl receivedWSMs 68
scalar Thesis.node[19].appl generatedBSMs 1
scalar Thesis.node[19].appl receivedBSMs 12
scalar Thesis.node[19].appl generatedWSAs 0
scalar Thesis.node[19].appl receivedWSAs 0
scalar Thesis.node[19].nic.phy80211p busyTime 9.2021621621621e-005
scalar Thesis.node[19].nic.mac1609_4 ReceivedUnicastPackets 0
scalar Thesis.node[19].nic.mac1609_4 ReceivedBroadcasts 80
scalar Thesis.node[19].nic.mac1609_4 SentPackets 6
scalar Thesis.node[19].nic.mac1609_4 SentAcknowledgements 0
scalar Thesis.node[19].nic.mac1609_4 SNIRLostPackets 0
scalar Thesis.node[19].nic.mac1609_4 RXTXLostPackets 0
scalar Thesis.node[19].nic.mac1609_4 TotalLostPackets 0
scalar Thesis.node[19].nic.mac1609_4 DroppedPacketsInMac 0
scalar Thesis.node[19].nic.mac1609_4 TooLittleTime 0
scalar Thesis.node[19].nic.mac1609_4 TimesIntoBackoff 6
scalar Thesis.node[19].nic.mac1609_4 SlotsBackoff 10
scalar Thesis.node[19].nic.mac1609_4 NumInternalContention 0
scalar Thesis.node[19].nic.mac1609_4 totalBusyTime 0.018294
scalar Thesis.node[19].veinsmobility startTime 45
scalar Thesis.node[19].veinsmobility totalTime 184
scalar Thesis.node[19].veinsmobility stopTime 230
scalar Thesis.node[19].veinsmobility minSpeed 0
scalar Thesis.node[19].veinsmobility maxSpeed 16.263037646314
scalar Thesis.node[19].veinsmobility totalDistance 1370.9019951452
scalar Thesis.node[19].veinsmobility totalCO2Emission 489.28846866533
scalar Thesis.node[59].appl generatedWSMs 6
scalar Thesis.node[59].appl receivedWSMs 108
scalar Thesis.node[59].appl generatedBSMs 1
scalar Thesis.node[59].appl receivedBSMs 15
scalar Thesis.node[59].appl generatedWSAs 0
scalar Thesis.node[59].appl receivedWSAs 0
scalar Thesis.node[59].nic.phy80211p busyTime 0.00027966666666667
scalar Thesis.node[59].nic.mac1609_4 ReceivedUnicastPackets 0
scalar Thesis.node[59].nic.mac1609_4 ReceivedBroadcasts 123
scalar Thesis.node[59].nic.mac1609_4 SentPackets 7
scalar Thesis.node[59].nic.mac1609_4 SentAcknowledgements 0
scalar Thesis.node[59].nic.mac1609_4 SNIRLostPackets 1
scalar Thesis.node[59].nic.mac1609_4 RXTXLostPackets 0
scalar Thesis.node[59].nic.mac1609_4 TotalLostPackets 1
scalar Thesis.node[59].nic.mac1609_4 DroppedPacketsInMac 0
scalar Thesis.node[59].nic.mac1609_4 TooLittleTime 0
scalar Thesis.node[59].nic.mac1609_4 TimesIntoBackoff 7
scalar Thesis.node[59].nic.mac1609_4 SlotsBackoff 7
scalar Thesis.node[59].nic.mac1609_4 NumInternalContention 0
scalar Thesis.node[59].nic.mac1609_4 totalBusyTime 0.028119
scalar Thesis.node[59].veinsmobility startTime 138
scalar Thesis.node[59].veinsmobility totalTime 95
scalar Thesis.node[59].veinsmobility stopTime 234
scalar Thesis.node[59].veinsmobility minSpeed 0
scalar Thesis.node[59].veinsmobility maxSpeed 15.184599748866
scalar Thesis.node[59].veinsmobility totalDistance 848.00489251435
scalar Thesis.node[59].veinsmobility totalCO2Emission 283.23885286929
scalar Thesis.node[1].appl generatedWSMs 5
scalar Thesis.node[1].appl receivedWSMs 88
scalar Thesis.node[1].appl generatedBSMs 1
scalar Thesis.node[1].appl receivedBSMs 15
scalar Thesis.node[1].appl generatedWSAs 0
scalar Thesis.node[1].appl receivedWSAs 0
scalar Thesis.node[1].nic.phy80211p busyTime 9.4317596566523e-005
scalar Thesis.node[1].nic.mac1609_4 ReceivedUnicastPackets 0
scalar Thesis.node[1].nic.mac1609_4 ReceivedBroadcasts 103
scalar Thesis.node[1].nic.mac1609_4 SentPackets 6
scalar Thesis.node[1].nic.mac1609_4 SentAcknowledgements 0
scalar Thesis.node[1].nic.mac1609_4 SNIRLostPackets 0
scalar Thesis.node[1].nic.mac1609_4 RXTXLostPackets 0
scalar Thesis.node[1].nic.mac1609_4 TotalLostPackets 0
scalar Thesis.node[1].nic.mac1609_4 DroppedPacketsInMac 0
scalar Thesis.node[1].nic.mac1609_4 TooLittleTime 0
scalar Thesis.node[1].nic.mac1609_4 TimesIntoBackoff 6
scalar Thesis.node[1].nic.mac1609_4 SlotsBackoff 13
scalar Thesis.node[1].nic.mac1609_4 NumInternalContention 0
scalar Thesis.node[1].nic.mac1609_4 totalBusyTime 0.023246
scalar Thesis.node[1].veinsmobility startTime 3
scalar Thesis.node[1].veinsmobility totalTime 232
scalar Thesis.node[1].veinsmobility stopTime 236
scalar Thesis.node[1].veinsmobility minSpeed 0
scalar Thesis.node[1].veinsmobility maxSpeed 15.63557043041
scalar Thesis.node[1].veinsmobility totalDistance 1395.1195433945
scalar Thesis.node[1].veinsmobility totalCO2Emission 513.81480995549
scalar Thesis.node[83].appl generatedWSMs 0
scalar Thesis.node[83].appl receivedWSMs 0
scalar Thesis.node[83].appl generatedBSMs 0
scalar Thesis.node[83].appl receivedBSMs 0
scalar Thesis.node[83].appl generatedWSAs 0
scalar Thesis.node[83].appl receivedWSAs 0
scalar Thesis.node[83].nic.phy80211p busyTime 0
scalar Thesis.node[83].nic.mac1609_4 ReceivedUnicastPackets 0
scalar Thesis.node[83].nic.mac1609_4 ReceivedBroadcasts 0
scalar Thesis.node[83].nic.mac1609_4 SentPackets 0
scalar Thesis.node[83].nic.mac1609_4 SentAcknowledgements 0
scalar Thesis.node[83].nic.mac1609_4 SNIRLostPackets 0
scalar Thesis.node[83].nic.mac1609_4 RXTXLostPackets 0
scalar Thesis.node[83].nic.mac1609_4 TotalLostPackets 0
scalar Thesis.node[83].nic.mac1609_4 DroppedPacketsInMac 0
scalar Thesis.node[83].nic.mac1609_4 TooLittleTime 0
scalar Thesis.node[83].nic.mac1609_4 TimesIntoBackoff 0
scalar Thesis.node[83].nic.mac1609_4 SlotsBackoff 0
scalar Thesis.node[83].nic.mac1609_4 NumInternalContention 0
scalar Thesis.node[83].nic.mac1609_4 totalBusyTime 0
scalar Thesis.node[83].veinsmobility startTime 192
scalar Thesis.node[83].veinsmobility totalTime 45
scalar Thesis.node[83].veinsmobility stopTime 238
scalar Thesis.node[83].veinsmobility minSpeed 1.0308134227984
scalar Thesis.node[83].veinsmobility maxSpeed 15.286910679725
scalar Thesis.node[83].veinsmobility totalDistance 403.19878643773
scalar Thesis.node[83].veinsmobility totalCO2Emission 153.7250338586
scalar Thesis.node[24].appl generatedWSMs 5
scalar Thesis.node[24].appl receivedWSMs 145
scalar Thesis.node[24].appl generatedBSMs 1
scalar Thesis.node[24].appl receivedBSMs 22
scalar Thesis.node[24].appl generatedWSAs 0
scalar Thesis.node[24].appl receivedWSAs 0
scalar Thesis.node[24].nic.phy80211p busyTime 0.00019565591397849
scalar Thesis.node[24].nic.mac1609_4 ReceivedUnicastPackets 0
scalar Thesis.node[24].nic.mac1609_4 ReceivedBroadcasts 167
scalar Thesis.node[24].nic.mac1609_4 SentPackets 6
scalar Thesis.node[24].nic.mac1609_4 SentAcknowledgements 0
scalar Thesis.node[24].nic.mac1609_4 SNIRLostPackets 2
scalar Thesis.node[24].nic.mac1609_4 RXTXLostPackets 0
scalar Thesis.node[24].nic.mac1609_4 TotalLostPackets 2
scalar Thesis.node[24].nic.mac1609_4 DroppedPacketsInMac 0
scalar Thesis.node[24].nic.mac1609_4 TooLittleTime 0
scalar Thesis.node[24].nic.mac1609_4 TimesIntoBackoff 6
scalar Thesis.node[24].nic.mac1609_4 SlotsBackoff 10
scalar Thesis.node[24].nic.mac1609_4 NumInternalContention 0
scalar Thesis.node[24].nic.mac1609_4 totalBusyTime 0.03743
scalar Thesis.node[24].veinsmobility startTime 57
scalar Thesis.node[24].veinsmobility totalTime 185
scalar Thesis.node[24].veinsmobility stopTime 243
scalar Thesis.node[24].veinsmobility minSpeed 0
scalar Thesis.node[24].veinsmobility maxSpeed 16.431600307215
scalar Thesis.node[24].veinsmobility totalDistance 1469.9855354874
scalar Thesis.node[24].veinsmobility totalCO2Emission 528.12394918954
scalar Thesis.node[25].appl generatedWSMs 3
scalar Thesis.node[25].appl receivedWSMs 137
scalar Thesis.node[25].appl generatedBSMs 1
scalar Thesis.node[25].appl receivedBSMs 23
scalar Thesis.node[25].appl generatedWSAs 0
scalar Thesis.node[25].appl receivedWSAs 0
scalar Thesis.node[25].nic.phy80211p busyTime 0.00017494949494949
scalar Thesis.node[25].nic.mac1609_4 ReceivedUnicastPackets 0
scalar Thesis.node[25].nic.mac1609_4 ReceivedBroadcasts 160
scalar Thesis.node[25].nic.mac1609_4 SentPackets 4
scalar Thesis.node[25].nic.mac1609_4 SentAcknowledgements 0
scalar Thesis.node[25].nic.mac1609_4 SNIRLostPackets 2
scalar Thesis.node[25].nic.mac1609_4 RXTXLostPackets 0
scalar Thesis.node[25].nic.mac1609_4 TotalLostPackets 2
scalar Thesis.node[25].nic.mac1609_4 DroppedPacketsInMac 0
scalar Thesis.node[25].nic.mac1609_4 TooLittleTime 0
scalar Thesis.node[25].nic.mac1609_4 TimesIntoBackoff 4
scalar Thesis.node[25].nic.mac1609_4 SlotsBackoff 4
scalar Thesis.node[25].nic.mac1609_4 NumInternalContention 0
scalar Thesis.node[25].nic.mac1609_4 totalBusyTime 0.035212
scalar Thesis.node[25].veinsmobility startTime 59
scalar Thesis.node[25].veinsmobility totalTime 197
scalar Thesis.node[25].veinsmobility stopTime 257
scalar Thesis.node[25].veinsmobility minSpeed 0
scalar Thesis.node[25].veinsmobility maxSpeed 20.638298159769
scalar Thesis.node[25].veinsmobility totalDistance 1852.4676574593
scalar Thesis.node[25].veinsmobility totalCO2Emission 560.23839975639
scalar Thesis.node[64].appl generatedWSMs 0
scalar Thesis.node[64].appl receivedWSMs 0
scalar Thesis.node[64].appl generatedBSMs 0
scalar Thesis.node[64].appl receivedBSMs 0
scalar Thesis.node[64].appl generatedWSAs 0
scalar Thesis.node[64].appl receivedWSAs 0
scalar Thesis.node[64].nic.phy80211p busyTime 0
scalar Thesis.node[64].nic.mac1609_4 ReceivedUnicastPackets 0
scalar Thesis.node[64].nic.mac1609_4 ReceivedBroadcasts 0
scalar Thesis.node[64].nic.mac1609_4 SentPackets 0
scalar Thesis.node[64].nic.mac1609_4 SentAcknowledgements 0
scalar Thesis.node[64].nic.mac1609_4 SNIRLostPackets 0
scalar Thesis.node[64].nic.mac1609_4 RXTXLostPackets 0
scalar Thesis.node[64].nic.mac1609_4 TotalLostPackets 0
scalar Thesis.node[64].nic.mac1609_4 DroppedPacketsInMac 0
scalar Thesis.node[64].nic.mac1609_4 TooLittleTime 0
scalar Thesis.node[64].nic.mac1609_4 TimesIntoBackoff 0
scalar Thesis.node[64].nic.mac1609_4 SlotsBackoff 0
scalar Thesis.node[64].nic.mac1609_4 NumInternalContention 0
scalar Thesis.node[64].nic.mac1609_4 totalBusyTime 0
scalar Thesis.node[64].veinsmobility startTime 150
scalar Thesis.node[64].veinsmobility totalTime 107
scalar Thesis.node[64].veinsmobility stopTime 258
scalar Thesis.node[64].veinsmobility minSpeed 2.9403928545876
scalar Thesis.node[64].veinsmobility maxSpeed 11.274080351627
scalar Thesis.node[64].veinsmobility totalDistance 909.66879078733
scalar Thesis.node[64].veinsmobility totalCO2Emission 252.78952344978
scalar Thesis.node[17].appl generatedWSMs 5
scalar Thesis.node[17].appl receivedWSMs 109
scalar Thesis.node[17].appl generatedBSMs 1
scalar Thesis.node[17].appl receivedBSMs 18
scalar Thesis.node[17].appl generatedWSAs 0
scalar Thesis.node[17].appl receivedWSAs 0
scalar Thesis.node[17].nic.phy80211p busyTime 0.00012234234234234
scalar Thesis.node[17].nic.mac1609_4 ReceivedUnicastPackets 0
scalar Thesis.node[17].nic.mac1609_4 ReceivedBroadcasts 127
scalar Thesis.node[17].nic.mac1609_4 SentPackets 6
scalar Thesis.node[17].nic.mac1609_4 SentAcknowledgements 0
scalar Thesis.node[17].nic.mac1609_4 SNIRLostPackets 0
scalar Thesis.node[17].nic.mac1609_4 RXTXLostPackets 0
scalar Thesis.node[17].nic.mac1609_4 TotalLostPackets 0
scalar Thesis.node[17].nic.mac1609_4 DroppedPacketsInMac 0
scalar Thesis.node[17].nic.mac1609_4 TooLittleTime 0
scalar Thesis.node[17].nic.mac1609_4 TimesIntoBackoff 6
scalar Thesis.node[17].nic.mac1609_4 SlotsBackoff 9
scalar Thesis.node[17].nic.mac1609_4 NumInternalContention 0
scalar Thesis.node[17].nic.mac1609_4 totalBusyTime 0.02843
scalar Thesis.node[17].veinsmobility startTime 39
scalar Thesis.node[17].veinsmobility totalTime 221
scalar Thesis.node[17].veinsmobility stopTime 261
scalar Thesis.node[17].veinsmobility minSpeed 0
scalar Thesis.node[17].veinsmobility maxSpeed 16.728187429044
scalar Thesis.node[17].veinsmobility totalDistance 1344.1384166252
scalar Thesis.node[17].veinsmobility totalCO2Emission 490.82887809203
scalar Thesis.node[56].appl generatedWSMs 6
scalar Thesis.node[56].appl receivedWSMs 84
scalar Thesis.node[56].appl generatedBSMs 1
scalar Thesis.node[56].appl receivedBSMs 15
scalar Thesis.node[56].appl generatedWSAs 0
scalar Thesis.node[56].appl receivedWSAs 0
scalar Thesis.node[56].nic.phy80211p busyTime 0.00015476470588235
scalar Thesis.node[56].nic.mac1609_4 ReceivedUnicastPackets 0
scalar Thesis.node[56].nic.mac1609_4 ReceivedBroadcasts 99
scalar Thesis.node[56].nic.mac1609_4 SentPackets 7
scalar Thesis.node[56].nic.mac1609_4 SentAcknowledgements 0
scalar Thesis.node[56].nic.mac1609_4 SNIRLostPackets 0
scalar Thesis.node[56].nic.mac1609_4 RXTXLostPackets 0
scalar Thesis.node[56].nic.mac1609_4 TotalLostPackets 0
scalar Thesis.node[56].nic.mac1609_4 DroppedPacketsInMac 0
scalar Thesis.node[56].nic.mac1609_4 TooLittleTime 0
scalar Thesis.node[56].nic.mac1609_4 TimesIntoBackoff 9
scalar Thesis.node[56].nic.mac1609_4 SlotsBackoff 16
scalar Thesis.node[56].nic.mac1609_4 NumInternalContention 0
scalar Thesis.node[56].nic.mac1609_4 totalBusyTime 0.022551
scalar Thesis.node[56].veinsmobility startTime 132
scalar Thesis.node[56].veinsmobility totalTime 135
scalar Thesis.node[56].veinsmobility stopTime 268
scalar Thesis.node[56].veinsmobility minSpeed 0
scalar Thesis.node[56].veinsmobility maxSpeed 13.225452626826
scalar Thesis.node[56].veinsmobility totalDistance 1190.6372851482
scalar Thesis.node[56].veinsmobility totalCO2Emission 349.32123455396
scalar Thesis.node[91].appl generatedWSMs 6
scalar Thesis.node[91].appl receivedWSMs 36
scalar Thesis.node[91].appl generatedBSMs 1
scalar Thesis.node[91].appl receivedBSMs 5
scalar Thesis.node[91].appl generatedWSAs 0
scalar Thesis.node[91].appl receivedWSAs 0
scalar Thesis.node[91].nic.phy80211p busyTime 0.00013241791044776
scalar Thesis.node[91].nic.mac1609_4 ReceivedUnicastPackets 0
scalar Thesis.node[91].nic.mac1609_4 ReceivedBroadcasts 41
scalar Thesis.node[91].nic.mac1609_4 SentPackets 7
scalar Thesis.node[91].nic.mac1609_4 SentAcknowledgements 0
scalar Thesis.node[91].nic.mac1609_4 SNIRLostPackets 0
scalar Thesis.node[91].nic.mac1609_4 RXTXLostPackets 0
scalar Thesis.node[91].nic.mac1609_4 TotalLostPackets 0
scalar Thesis.node[91].nic.mac1609_4 DroppedPacketsInMac 0
scalar Thesis.node[91].nic.mac1609_4 TooLittleTime 0
scalar Thesis.node[91].nic.mac1609_4 TimesIntoBackoff 8
scalar Thesis.node[91].nic.mac1609_4 SlotsBackoff 14
scalar Thesis.node[91].nic.mac1609_4 NumInternalContention 0
scalar Thesis.node[91].nic.mac1609_4 totalBusyTime 0.010375
scalar Thesis.node[91].veinsmobility startTime 213
scalar Thesis.node[91].veinsmobility totalTime 66
scalar Thesis.node[91].veinsmobility stopTime 280
scalar Thesis.node[91].veinsmobility minSpeed 0
scalar Thesis.node[91].veinsmobility maxSpeed 22.198969409722
scalar Thesis.node[91].veinsmobility totalDistance 529.20056347141
scalar Thesis.node[91].veinsmobility totalCO2Emission 182.66095517865
scalar Thesis.node[41].appl generatedWSMs 6
scalar Thesis.node[41].appl receivedWSMs 86
scalar Thesis.node[41].appl generatedBSMs 1
scalar Thesis.node[41].appl receivedBSMs 13
scalar Thesis.node[41].appl generatedWSAs 0
scalar Thesis.node[41].appl receivedWSAs 0
scalar Thesis.node[41].nic.phy80211p busyTime 0.00011515675675676
scalar Thesis.node[41].nic.mac1609_4 ReceivedUnicastPackets 0
scalar Thesis.node[41].nic.mac1609_4 ReceivedBroadcasts 99
scalar Thesis.node[41].nic.mac1609_4 SentPackets 7
scalar Thesis.node[41].nic.mac1609_4 SentAcknowledgements 0
scalar Thesis.node[41].nic.mac1609_4 SNIRLostPackets 0
scalar Thesis.node[41].nic.mac1609_4 RXTXLostPackets 0
scalar Thesis.node[41].nic.mac1609_4 TotalLostPackets 0
scalar Thesis.node[41].nic.mac1609_4 DroppedPacketsInMac 0
scalar Thesis.node[41].nic.mac1609_4 TooLittleTime 0
scalar Thesis.node[41].nic.mac1609_4 TimesIntoBackoff 7
scalar Thesis.node[41].nic.mac1609_4 SlotsBackoff 9
scalar Thesis.node[41].nic.mac1609_4 NumInternalContention 0
scalar Thesis.node[41].nic.mac1609_4 totalBusyTime 0.022807
scalar Thesis.node[41].veinsmobility startTime 97
scalar Thesis.node[41].veinsmobility totalTime 184
scalar Thesis.node[41].veinsmobility stopTime 282
scalar Thesis.node[41].veinsmobility minSpeed 0
scalar Thesis.node[41].veinsmobility maxSpeed 19.56032111484
scalar Thesis.node[41].veinsmobility totalDistance 1321.2794429118
scalar Thesis.node[41].veinsmobility totalCO2Emission 439.70637657508
scalar Thesis.node[39].appl generatedWSMs 10
scalar Thesis.node[39].appl receivedWSMs 188
scalar Thesis.node[39].appl generatedBSMs 1
scalar Thesis.node[39].appl receivedBSMs 28
scalar Thesis.node[39].appl generatedWSAs 0
scalar Thesis.node[39].appl receivedWSAs 0
scalar Thesis.node[39].nic.phy80211p busyTime 0.00024024365482234
scalar Thesis.node[39].nic.mac1609_4 ReceivedUnicastPackets 0
scalar Thesis.node[39].nic.mac1609_4 ReceivedBroadcasts 216
scalar Thesis.node[39].nic.mac1609_4 SentPackets 11
scalar Thesis.node[39].nic.mac1609_4 SentAcknowledgements 0
scalar Thesis.node[39].nic.mac1609_4 SNIRLostPackets 4
scalar Thesis.node[39].nic.mac1609_4 RXTXLostPackets 0
scalar Thesis.node[39].nic.mac1609_4 TotalLostPackets 4
scalar Thesis.node[39].nic.mac1609_4 DroppedPacketsInMac 0
scalar Thesis.node[39].nic.mac1609_4 TooLittleTime 0
scalar Thesis.node[39].nic.mac1609_4 TimesIntoBackoff 12
scalar Thesis.node[39].nic.mac1609_4 SlotsBackoff 18
scalar Thesis.node[39].nic.mac1609_4 NumInternalContention 0
scalar Thesis.node[39].nic.mac1609_4 totalBusyTime 0.049427
scalar Thesis.node[39].veinsmobility startTime 91
scalar Thesis.node[39].veinsmobility totalTime 196
scalar Thesis.node[39].veinsmobility stopTime 288
scalar Thesis.node[39].veinsmobility minSpeed 0
scalar Thesis.node[39].veinsmobility maxSpeed 17.953460562833
scalar Thesis.node[39].veinsmobility totalDistance 1597.5831873133
scalar Thesis.node[39].veinsmobility totalCO2Emission 525.33255465594
scalar Thesis.node[13].appl generatedWSMs 7
scalar Thesis.node[13].appl receivedWSMs 114
scalar Thesis.node[13].appl generatedBSMs 1
scalar Thesis.node[13].appl receivedBSMs 21
scalar Thesis.node[13].appl generatedWSAs 0
scalar Thesis.node[13].appl receivedWSAs 0
scalar Thesis.node[13].nic.phy80211p busyTime 0.00010683582089552
scalar Thesis.node[13].nic.mac1609_4 ReceivedUnicastPackets 0
scalar Thesis.node[13].nic.mac1609_4 ReceivedBroadcasts 135
scalar Thesis.node[13].nic.mac1609_4 SentPackets 8
scalar Thesis.node[13].nic.mac1609_4 SentAcknowledgements 0
scalar Thesis.node[13].nic.mac1609_4 SNIRLostPackets 0
scalar Thesis.node[13].nic.mac1609_4 RXTXLostPackets 0
scalar Thesis.node[13].nic.mac1609_4 TotalLostPackets 0
scalar Thesis.node[13].nic.mac1609_4 DroppedPacketsInMac 0
scalar Thesis.node[13].nic.mac1609_4 TooLittleTime 0
scalar Thesis.node[13].nic.mac1609_4 TimesIntoBackoff 9
scalar Thesis.node[13].nic.mac1609_4 SlotsBackoff 18
scalar Thesis.node[13].nic.mac1609_4 NumInternalContention 0
scalar Thesis.node[13].nic.mac1609_4 totalBusyTime 0.030368
scalar Thesis.node[13].veinsmobility startTime 21
scalar Thesis.node[13].veinsmobility totalTime 267
scalar Thesis.node[13].veinsmobility stopTime 289
scalar Thesis.node[13].veinsmobility minSpeed 0
scalar Thesis.node[13].veinsmobility maxSpeed 18.909957091463
scalar Thesis.node[13].veinsmobility totalDistance 1540.2474614125
scalar Thesis.node[13].veinsmobility totalCO2Emission 680.0926677382
scalar Thesis.node[26].appl generatedWSMs 7
scalar Thesis.node[26].appl receivedWSMs 182
scalar Thesis.node[26].appl generatedBSMs 1
scalar Thesis.node[26].appl receivedBSMs 27
scalar Thesis.node[26].appl generatedWSAs 0
scalar Thesis.node[26].appl receivedWSAs 0
scalar Thesis.node[26].nic.phy80211p busyTime 0.0001906218487395
scalar Thesis.node[26].nic.mac1609_4 ReceivedUnicastPackets 0
scalar Thesis.node[26].nic.mac1609_4 ReceivedBroadcasts 209
scalar Thesis.node[26].nic.mac1609_4 SentPackets 8
scalar Thesis.node[26].nic.mac1609_4 SentAcknowledgements 0
scalar Thesis.node[26].nic.mac1609_4 SNIRLostPackets 2
scalar Thesis.node[26].nic.mac1609_4 RXTXLostPackets 0
scalar Thesis.node[26].nic.mac1609_4 TotalLostPackets 2
scalar Thesis.node[26].nic.mac1609_4 DroppedPacketsInMac 0
scalar Thesis.node[26].nic.mac1609_4 TooLittleTime 0
scalar Thesis.node[26].nic.mac1609_4 TimesIntoBackoff 9
scalar Thesis.node[26].nic.mac1609_4 SlotsBackoff 14
scalar Thesis.node[26].nic.mac1609_4 NumInternalContention 0
scalar Thesis.node[26].nic.mac1609_4 totalBusyTime 0.047
scalar Thesis.node[26].veinsmobility startTime 61
scalar Thesis.node[26].veinsmobility totalTime 237
scalar Thesis.node[26].veinsmobility stopTime 299
scalar Thesis.node[26].veinsmobility minSpeed 0
scalar Thesis.node[26].veinsmobility maxSpeed 16.214853433263
scalar Thesis.node[26].veinsmobility totalDistance 1764.4626082806
scalar Thesis.node[26].veinsmobility totalCO2Emission 624.5630890398
scalar Thesis.node[95].appl generatedWSMs 4
scalar Thesis.node[95].appl receivedWSMs 114
scalar Thesis.node[95].appl generatedBSMs 1
scalar Thesis.node[95].appl receivedBSMs 18
scalar Thesis.node[95].appl generatedWSAs 0
scalar Thesis.node[95].appl receivedWSAs 0
scalar Thesis.node[95].nic.phy80211p busyTime 0.00035848101265823
scalar Thesis.node[95].nic.mac1609_4 ReceivedUnicastPackets 0
scalar Thesis.node[95].nic.mac1609_4 ReceivedBroadcasts 132
scalar Thesis.node[95].nic.mac1609_4 SentPackets 5
scalar Thesis.node[95].nic.mac1609_4 SentAcknowledgements 0
scalar Thesis.node[95].nic.mac1609_4 SNIRLostPackets 0
scalar Thesis.node[95].nic.mac1609_4 RXTXLostPackets 0
scalar Thesis.node[95].nic.mac1609_4 TotalLostPackets 0
scalar Thesis.node[95].nic.mac1609_4 DroppedPacketsInMac 0
scalar Thesis.node[95].nic.mac1609_4 TooLittleTime 0
scalar Thesis.node[95].nic.mac1609_4 TimesIntoBackoff 5
scalar Thesis.node[95].nic.mac1609_4 SlotsBackoff 11
scalar Thesis.node[95].nic.mac1609_4 NumInternalContention 0
scalar Thesis.node[95].nic.mac1609_4 totalBusyTime 0.029357
scalar Thesis.node[95].veinsmobility startTime 221
scalar Thesis.node[95].veinsmobility totalTime 78
scalar Thesis.node[95].veinsmobility stopTime 300
scalar Thesis.node[95].veinsmobility minSpeed 0
scalar Thesis.node[95].veinsmobility maxSpeed 12.541836884382
scalar Thesis.node[95].veinsmobility totalDistance 621.27783686698
scalar Thesis.node[95].veinsmobility totalCO2Emission 195.95468753654
scalar Thesis.node[70].appl generatedWSMs 5
scalar Thesis.node[70].appl receivedWSMs 120
scalar Thesis.node[70].appl generatedBSMs 1
scalar Thesis.node[70].appl receivedBSMs 20
scalar Thesis.node[70].appl generatedWSAs 0
scalar Thesis.node[70].appl receivedWSAs 0
scalar Thesis.node[70].nic.phy80211p busyTime 0.00021839416058394
scalar Thesis.node[70].nic.mac1609_4 ReceivedUnicastPackets 0
scalar Thesis.node[70].nic.mac1609_4 ReceivedBroadcasts 140
scalar Thesis.node[70].nic.mac1609_4 SentPackets 6
scalar Thesis.node[70].nic.mac1609_4 SentAcknowledgements 0
scalar Thesis.node[70].nic.mac1609_4 SNIRLostPackets 0
scalar Thesis.node[70].nic.mac1609_4 RXTXLostPackets 0
scalar Thesis.node[70].nic.mac1609_4 TotalLostPackets 0
scalar Thesis.node[70].nic.mac1609_4 DroppedPacketsInMac 0
scalar Thesis.node[70].nic.mac1609_4 TooLittleTime 0
scalar Thesis.node[70].nic.mac1609_4 TimesIntoBackoff 6
scalar Thesis.node[70].nic.mac1609_4 SlotsBackoff 9
scalar Thesis.node[70].nic.mac1609_4 NumInternalContention 0
scalar Thesis.node[70].nic.mac1609_4 totalBusyTime 0.03119
scalar Thesis.node[70].veinsmobility startTime 166
scalar Thesis.node[70].veinsmobility totalTime 136
scalar Thesis.node[70].veinsmobility stopTime 303
scalar Thesis.node[70].veinsmobility minSpeed 0
scalar Thesis.node[70].veinsmobility maxSpeed 16.519257586134
scalar Thesis.node[70].veinsmobility totalDistance 925.79127230501
scalar Thesis.node[70].veinsmobility totalCO2Emission 305.20856447548
scalar Thesis.node[10].appl generatedWSMs 6
scalar Thesis.node[10].appl receivedWSMs 187
scalar Thesis.node[10].appl generatedBSMs 1
scalar Thesis.node[10].appl receivedBSMs 29
scalar Thesis.node[10].appl generatedWSAs 0
scalar Thesis.node[10].appl receivedWSAs 0
scalar Thesis.node[10].nic.phy80211p busyTime 0.0001616
scalar Thesis.node[10].nic.mac1609_4 ReceivedUnicastPackets 0
scalar Thesis.node[10].nic.mac1609_4 ReceivedBroadcasts 216
scalar Thesis.node[10].nic.mac1609_4 SentPackets 7
scalar Thesis.node[10].nic.mac1609_4 SentAcknowledgements 0
scalar Thesis.node[10].nic.mac1609_4 SNIRLostPackets 2
scalar Thesis.node[10].nic.mac1609_4 RXTXLostPackets 0
scalar Thesis.node[10].nic.mac1609_4 TotalLostPackets 2
scalar Thesis.node[10].nic.mac1609_4 DroppedPacketsInMac 0
scalar Thesis.node[10].nic.mac1609_4 TooLittleTime 0
scalar Thesis.node[10].nic.mac1609_4 TimesIntoBackoff 7
scalar Thesis.node[10].nic.mac1609_4 SlotsBackoff 9
scalar Thesis.node[10].nic.mac1609_4 NumInternalContention 0
scalar Thesis.node[10].nic.mac1609_4 totalBusyTime 0.048135
scalar Thesis.node[10].veinsmobility startTime 13
scalar Thesis.node[10].veinsmobility totalTime 289
scalar Thesis.node[10].veinsmobility stopTime 303
scalar Thesis.node[10].veinsmobility minSpeed 0
scalar Thesis.node[10].veinsmobility maxSpeed 13.128593293063
scalar Thesis.node[10].veinsmobility totalDistance 1468.9245558404
scalar Thesis.node[10].veinsmobility totalCO2Emission 506.7531211503
scalar Thesis.node[55].appl generatedWSMs 7
scalar Thesis.node[55].appl receivedWSMs 182
scalar Thesis.node[55].appl generatedBSMs 1
scalar Thesis.node[55].appl receivedBSMs 27
scalar Thesis.node[55].appl generatedWSAs 0
scalar Thesis.node[55].appl receivedWSAs 0
scalar Thesis.node[55].nic.phy80211p busyTime 0.00025732571428572
scalar Thesis.node[55].nic.mac1609_4 ReceivedUnicastPackets 0
scalar Thesis.node[55].nic.mac1609_4 ReceivedBroadcasts 209
scalar Thesis.node[55].nic.mac1609_4 SentPackets 8
scalar Thesis.node[55].nic.mac1609_4 SentAcknowledgements 0
scalar Thesis.node[55].nic.mac1609_4 SNIRLostPackets 0
scalar Thesis.node[55].nic.mac1609_4 RXTXLostPackets 0
scalar Thesis.node[55].nic.mac1609_4 TotalLostPackets 0
scalar Thesis.node[55].nic.mac1609_4 DroppedPacketsInMac 0
scalar Thesis.node[55].nic.mac1609_4 TooLittleTime 0
scalar Thesis.node[55].nic.mac1609_4 TimesIntoBackoff 9
scalar Thesis.node[55].nic.mac1609_4 SlotsBackoff 14
scalar Thesis.node[55].nic.mac1609_4 NumInternalContention 0
scalar Thesis.node[55].nic.mac1609_4 totalBusyTime 0.046768
scalar Thesis.node[55].veinsmobility startTime 130
scalar Thesis.node[55].veinsmobility totalTime 174
scalar Thesis.node[55].veinsmobility stopTime 305
scalar Thesis.node[55].veinsmobility minSpeed 0
scalar Thesis.node[55].veinsmobility maxSpeed 27.917420801151
scalar Thesis.node[55].veinsmobility totalDistance 1720.9596608258
scalar Thesis.node[55].veinsmobility totalCO2Emission 578.60883705374
scalar Thesis.node[85].appl generatedWSMs 8
scalar Thesis.node[85].appl receivedWSMs 85
scalar Thesis.node[85].appl generatedBSMs 1
scalar Thesis.node[85].appl receivedBSMs 17
scalar Thesis.node[85].appl generatedWSAs 0
scalar Thesis.node[85].appl receivedWSAs 0
scalar Thesis.node[85].nic.phy80211p busyTime 0.0001971376146789
scalar Thesis.node[85].nic.mac1609_4 ReceivedUnicastPackets 0
scalar Thesis.node[85].nic.mac1609_4 ReceivedBroadcasts 102
scalar Thesis.node[85].nic.mac1609_4 SentPackets 9
scalar Thesis.node[85].nic.mac1609_4 SentAcknowledgements 0
scalar Thesis.node[85].nic.mac1609_4 SNIRLostPackets 0
scalar Thesis.node[85].nic.mac1609_4 RXTXLostPackets 0
scalar Thesis.node[85].nic.mac1609_4 TotalLostPackets 0
scalar Thesis.node[85].nic.mac1609_4 DroppedPacketsInMac 0
scalar Thesis.node[85].nic.mac1609_4 TooLittleTime 0
scalar Thesis.node[85].nic.mac1609_4 TimesIntoBackoff 9
scalar Thesis.node[85].nic.mac1609_4 SlotsBackoff 18
scalar Thesis.node[85].nic.mac1609_4 NumInternalContention 0
scalar Thesis.node[85].nic.mac1609_4 totalBusyTime 0.023457
scalar Thesis.node[85].veinsmobility startTime 198
scalar Thesis.node[85].veinsmobility totalTime 108
scalar Thesis.node[85].veinsmobility stopTime 307
scalar Thesis.node[85].veinsmobility minSpeed 0
scalar Thesis.node[85].veinsmobility maxSpeed 23.953659821759
scalar Thesis.node[85].veinsmobility totalDistance 873.99033745831
scalar Thesis.node[85].veinsmobility totalCO2Emission 276.120394702
scalar Thesis.node[0].appl generatedWSMs 5
scalar Thesis.node[0].appl receivedWSMs 150
scalar Thesis.node[0].appl generatedBSMs 1
scalar Thesis.node[0].appl receivedBSMs 23
scalar Thesis.node[0].appl generatedWSAs 0
scalar Thesis.node[0].appl receivedWSAs 0
scalar Thesis.node[0].nic.phy80211p busyTime 0.00012114657980456
scalar Thesis.node[0].nic.mac1609_4 ReceivedUnicastPackets 0
scalar Thesis.node[0].nic.mac1609_4 ReceivedBroadcasts 173
scalar Thesis.node[0].nic.mac1609_4 SentPackets 6
scalar Thesis.node[0].nic.mac1609_4 SentAcknowledgements 0
scalar Thesis.node[0].nic.mac1609_4 SNIRLostPackets 0
scalar Thesis.node[0].nic.mac1609_4 RXTXLostPackets 0
scalar Thesis.node[0].nic.mac1609_4 TotalLostPackets 0
scalar Thesis.node[0].nic.mac1609_4 DroppedPacketsInMac 0
scalar Thesis.node[0].nic.mac1609_4 TooLittleTime 0
scalar Thesis.node[0].nic.mac1609_4 TimesIntoBackoff 6
scalar Thesis.node[0].nic.mac1609_4 SlotsBackoff 11
scalar Thesis.node[0].nic.mac1609_4 NumInternalContention 0
scalar Thesis.node[0].nic.mac1609_4 totalBusyTime 0.038462
scalar Thesis.node[0].veinsmobility startTime 1
scalar Thesis.node[0].veinsmobility totalTime 306
scalar Thesis.node[0].veinsmobility stopTime 308
scalar Thesis.node[0].veinsmobility minSpeed 0
scalar Thesis.node[0].veinsmobility maxSpeed 15.500420758181
scalar Thesis.node[0].veinsmobility totalDistance 1399.5172396957
scalar Thesis.node[0].veinsmobility totalCO2Emission 608.28615173272
scalar Thesis.node[67].appl generatedWSMs 5
scalar Thesis.node[67].appl receivedWSMs 108
scalar Thesis.node[67].appl generatedBSMs 1
scalar Thesis.node[67].appl receivedBSMs 19
scalar Thesis.node[67].appl generatedWSAs 0
scalar Thesis.node[67].appl receivedWSAs 0
scalar Thesis.node[67].nic.phy80211p busyTime 0.00018021333333333
scalar Thesis.node[67].nic.mac1609_4 ReceivedUnicastPackets 0
scalar Thesis.node[67].nic.mac1609_4 ReceivedBroadcasts 127
scalar Thesis.node[67].nic.mac1609_4 SentPackets 6
scalar Thesis.node[67].nic.mac1609_4 SentAcknowledgements 0
scalar Thesis.node[67].nic.mac1609_4 SNIRLostPackets 0
scalar Thesis.node[67].nic.mac1609_4 RXTXLostPackets 0
scalar Thesis.node[67].nic.mac1609_4 TotalLostPackets 0
scalar Thesis.node[67].nic.mac1609_4 DroppedPacketsInMac 0
scalar Thesis.node[67].nic.mac1609_4 TooLittleTime 0
scalar Thesis.node[67].nic.mac1609_4 TimesIntoBackoff 6
scalar Thesis.node[67].nic.mac1609_4 SlotsBackoff 9
scalar Thesis.node[67].nic.mac1609_4 NumInternalContention 0
scalar Thesis.node[67].nic.mac1609_4 totalBusyTime 0.028302
scalar Thesis.node[67].veinsmobility startTime 158
scalar Thesis.node[67].veinsmobility totalTime 149
scalar Thesis.node[67].veinsmobility stopTime 308
scalar Thesis.node[67].veinsmobility minSpeed 0
scalar Thesis.node[67].veinsmobility maxSpeed 16.51125178654
scalar Thesis.node[67].veinsmobility totalDistance 1024.6049885093
scalar Thesis.node[67].veinsmobility totalCO2Emission 356.45154093995
scalar Thesis.node[37].appl generatedWSMs 7
scalar Thesis.node[37].appl receivedWSMs 136
scalar Thesis.node[37].appl generatedBSMs 1
scalar Thesis.node[37].appl receivedBSMs 22
scalar Thesis.node[37].appl generatedWSAs 0
scalar Thesis.node[37].appl receivedWSAs 0
scalar Thesis.node[37].nic.phy80211p busyTime 0.00015174887892377
scalar Thesis.node[37].nic.mac1609_4 ReceivedUnicastPackets 0
scalar Thesis.node[37].nic.mac1609_4 ReceivedBroadcasts 158
scalar Thesis.node[37].nic.mac1609_4 SentPackets 8
scalar Thesis.node[37].nic.mac1609_4 SentAcknowledgements 0
scalar Thesis.node[37].nic.mac1609_4 SNIRLostPackets 0
scalar Thesis.node[37].nic.mac1609_4 RXTXLostPackets 0
scalar Thesis.node[37].nic.mac1609_4 TotalLostPackets 0
scalar Thesis.node[37].nic.mac1609_4 DroppedPacketsInMac 0
scalar Thesis.node[37].nic.mac1609_4 TooLittleTime 0
scalar Thesis.node[37].nic.mac1609_4 TimesIntoBackoff 8
scalar Thesis.node[37].nic.mac1609_4 SlotsBackoff 13
scalar Thesis.node[37].nic.mac1609_4 NumInternalContention 0
scalar Thesis.node[37].nic.mac1609_4 totalBusyTime 0.035576
scalar Thesis.node[37].veinsmobility startTime 87
scalar Thesis.node[37].veinsmobility totalTime 222
scalar Thesis.node[37].veinsmobility stopTime 310
scalar Thesis.node[37].veinsmobility minSpeed 0
scalar Thesis.node[37].veinsmobility maxSpeed 22.241454661539
scalar Thesis.node[37].veinsmobility totalDistance 1850.2487674142
scalar Thesis.node[37].veinsmobility totalCO2Emission 599.99887414888
scalar Thesis.node[89].appl generatedWSMs 5
scalar Thesis.node[89].appl receivedWSMs 108
scalar Thesis.node[89].appl generatedBSMs 1
scalar Thesis.node[89].appl receivedBSMs 19
scalar Thesis.node[89].appl generatedWSAs 0
scalar Thesis.node[89].appl receivedWSAs 0
scalar Thesis.node[89].nic.phy80211p busyTime 0.00026764356435644
scalar Thesis.node[89].nic.mac1609_4 ReceivedUnicastPackets 0
scalar Thesis.node[89].nic.mac1609_4 ReceivedBroadcasts 127
scalar Thesis.node[89].nic.mac1609_4 SentPackets 6
scalar Thesis.node[89].nic.mac1609_4 SentAcknowledgements 0
scalar Thesis.node[89].nic.mac1609_4 SNIRLostPackets 0
scalar Thesis.node[89].nic.mac1609_4 RXTXLostPackets 0
scalar Thesis.node[89].nic.mac1609_4 TotalLostPackets 0
scalar Thesis.node[89].nic.mac1609_4 DroppedPacketsInMac 0
scalar Thesis.node[89].nic.mac1609_4 TooLittleTime 0
scalar Thesis.node[89].nic.mac1609_4 TimesIntoBackoff 6
scalar Thesis.node[89].nic.mac1609_4 SlotsBackoff 6
scalar Thesis.node[89].nic.mac1609_4 NumInternalContention 0
scalar Thesis.node[89].nic.mac1609_4 totalBusyTime 0.028302
scalar Thesis.node[89].veinsmobility startTime 209
scalar Thesis.node[89].veinsmobility totalTime 100
scalar Thesis.node[89].veinsmobility stopTime 310
scalar Thesis.node[89].veinsmobility minSpeed 0
scalar Thesis.node[89].veinsmobility maxSpeed 26.493322621162
scalar Thesis.node[89].veinsmobility totalDistance 962.01164706667
scalar Thesis.node[89].veinsmobility totalCO2Emission 335.43291471497
scalar Thesis.node[61].appl generatedWSMs 3
scalar Thesis.node[61].appl receivedWSMs 85
scalar Thesis.node[61].appl generatedBSMs 1
scalar Thesis.node[61].appl receivedBSMs 16
scalar Thesis.node[61].appl generatedWSAs 0
scalar Thesis.node[61].appl receivedWSAs 0
scalar Thesis.node[61].nic.phy80211p busyTime 0.00012881927710843
scalar Thesis.node[61].nic.mac1609_4 ReceivedUnicastPackets 0
scalar Thesis.node[61].nic.mac1609_4 ReceivedBroadcasts 101
scalar Thesis.node[61].nic.mac1609_4 SentPackets 4
scalar Thesis.node[61].nic.mac1609_4 SentAcknowledgements 0
scalar Thesis.node[61].nic.mac1609_4 SNIRLostPackets 0
scalar Thesis.node[61].nic.mac1609_4 RXTXLostPackets 0
scalar Thesis.node[61].nic.mac1609_4 TotalLostPackets 0
scalar Thesis.node[61].nic.mac1609_4 DroppedPacketsInMac 0
scalar Thesis.node[61].nic.mac1609_4 TooLittleTime 0
scalar Thesis.node[61].nic.mac1609_4 TimesIntoBackoff 4
scalar Thesis.node[61].nic.mac1609_4 SlotsBackoff 7
scalar Thesis.node[61].nic.mac1609_4 NumInternalContention 0
scalar Thesis.node[61].nic.mac1609_4 totalBusyTime 0.022188
scalar Thesis.node[61].veinsmobility startTime 144
scalar Thesis.node[61].veinsmobility totalTime 165
scalar Thesis.node[61].veinsmobility stopTime 310
scalar Thesis.node[61].veinsmobility minSpeed 0
scalar Thesis.node[61].veinsmobility maxSpeed 16.920988375235
scalar Thesis.node[61].veinsmobility totalDistance 1353.8206530428
scalar Thesis.node[61].veinsmobility totalCO2Emission 461.62283677567
scalar Thesis.node[22].appl generatedWSMs 6
scalar Thesis.node[22].appl receivedWSMs 159
scalar Thesis.node[22].appl generatedBSMs 1
scalar Thesis.node[22].appl receivedBSMs 28
scalar Thesis.node[22].appl generatedWSAs 0
scalar Thesis.node[22].appl receivedWSAs 0
scalar Thesis.node[22].nic.phy80211p busyTime 0.00015606201550388
scalar Thesis.node[22].nic.mac1609_4 ReceivedUnicastPackets 0
scalar Thesis.node[22].nic.mac1609_4 ReceivedBroadcasts 187
scalar Thesis.node[22].nic.mac1609_4 SentPackets 7
scalar Thesis.node[22].nic.mac1609_4 SentAcknowledgements 0
scalar Thesis.node[22].nic.mac1609_4 SNIRLostPackets 2
scalar Thesis.node[22].nic.mac1609_4 RXTXLostPackets 0
scalar Thesis.node[22].nic.mac1609_4 TotalLostPackets 2
scalar Thesis.node[22].nic.mac1609_4 DroppedPacketsInMac 0
scalar Thesis.node[22].nic.mac1609_4 TooLittleTime 0
scalar Thesis.node[22].nic.mac1609_4 TimesIntoBackoff 7
scalar Thesis.node[22].nic.mac1609_4 SlotsBackoff 3
scalar Thesis.node[22].nic.mac1609_4 NumInternalContention 0
scalar Thesis.node[22].nic.mac1609_4 totalBusyTime 0.041535
scalar Thesis.node[22].veinsmobility startTime 53
scalar Thesis.node[22].veinsmobility totalTime 257
scalar Thesis.node[22].veinsmobility stopTime 311
scalar Thesis.node[22].veinsmobility minSpeed 0
scalar Thesis.node[22].veinsmobility maxSpeed 27.91340575476
scalar Thesis.node[22].veinsmobility totalDistance 2575.9363821481
scalar Thesis.node[22].veinsmobility totalCO2Emission 819.06710708397
scalar Thesis.node[87].appl generatedWSMs 5
scalar Thesis.node[87].appl receivedWSMs 128
scalar Thesis.node[87].appl generatedBSMs 1
scalar Thesis.node[87].appl receivedBSMs 20
scalar Thesis.node[87].appl generatedWSAs 0
scalar Thesis.node[87].appl receivedWSAs 0
scalar Thesis.node[87].nic.phy80211p busyTime 0.00029697196261682
scalar Thesis.node[87].nic.mac1609_4 ReceivedUnicastPackets 0
scalar Thesis.node[87].nic.mac1609_4 ReceivedBroadcasts 148
scalar Thesis.node[87].nic.mac1609_4 SentPackets 6
scalar Thesis.node[87].nic.mac1609_4 SentAcknowledgements 0
scalar Thesis.node[87].nic.mac1609_4 SNIRLostPackets 0
scalar Thesis.node[87].nic.mac1609_4 RXTXLostPackets 0
scalar Thesis.node[87].nic.mac1609_4 TotalLostPackets 0
scalar Thesis.node[87].nic.mac1609_4 DroppedPacketsInMac 0
scalar Thesis.node[87].nic.mac1609_4 TooLittleTime 0
scalar Thesis.node[87].nic.mac1609_4 TimesIntoBackoff 6
scalar Thesis.node[87].nic.mac1609_4 SlotsBackoff 11
scalar Thesis.node[87].nic.mac1609_4 NumInternalContention 0
scalar Thesis.node[87].nic.mac1609_4 totalBusyTime 0.033046
scalar Thesis.node[87].veinsmobility startTime 204
scalar Thesis.node[87].veinsmobility totalTime 106
scalar Thesis.node[87].veinsmobility stopTime 311
scalar Thesis.node[87].veinsmobility minSpeed 0
scalar Thesis.node[87].veinsmobility maxSpeed 25.795415643724
scalar Thesis.node[87].veinsmobility totalDistance 1100.2572454121
scalar Thesis.node[87].veinsmobility totalCO2Emission 392.56538730412
scalar Thesis.node[18].appl generatedWSMs 5
scalar Thesis.node[18].appl receivedWSMs 226
scalar Thesis.node[18].appl generatedBSMs 1
scalar Thesis.node[18].appl receivedBSMs 37
scalar Thesis.node[18].appl generatedWSAs 0
scalar Thesis.node[18].appl receivedWSAs 0
scalar Thesis.node[18].nic.phy80211p busyTime 0.00020861764705882
scalar Thesis.node[18].nic.mac1609_4 ReceivedUnicastPackets 0
scalar Thesis.node[18].nic.mac1609_4 ReceivedBroadcasts 263
scalar Thesis.node[18].nic.mac1609_4 SentPackets 6
scalar Thesis.node[18].nic.mac1609_4 SentAcknowledgements 0
scalar Thesis.node[18].nic.mac1609_4 SNIRLostPackets 2
scalar Thesis.node[18].nic.mac1609_4 RXTXLostPackets 0
scalar Thesis.node[18].nic.mac1609_4 TotalLostPackets 2
scalar Thesis.node[18].nic.mac1609_4 DroppedPacketsInMac 0
scalar Thesis.node[18].nic.mac1609_4 TooLittleTime 0
scalar Thesis.node[18].nic.mac1609_4 TimesIntoBackoff 7
scalar Thesis.node[18].nic.mac1609_4 SlotsBackoff 10
scalar Thesis.node[18].nic.mac1609_4 NumInternalContention 0
scalar Thesis.node[18].nic.mac1609_4 totalBusyTime 0.057782
scalar Thesis.node[18].veinsmobility startTime 41
scalar Thesis.node[18].veinsmobility totalTime 271
scalar Thesis.node[18].veinsmobility stopTime 313
scalar Thesis.node[18].veinsmobility minSpeed 0.44423408345075
scalar Thesis.node[18].veinsmobility maxSpeed 14.413892013591
scalar Thesis.node[18].veinsmobility totalDistance 1779.5616880719
scalar Thesis.node[18].veinsmobility totalCO2Emission 628.36584655075
scalar Thesis.node[94].appl generatedWSMs 8
scalar Thesis.node[94].appl receivedWSMs 85
scalar Thesis.node[94].appl generatedBSMs 1
scalar Thesis.node[94].appl receivedBSMs 11
scalar Thesis.node[94].appl generatedWSAs 0
scalar Thesis.node[94].appl receivedWSAs 0
scalar Thesis.node[94].nic.phy80211p busyTime 0.00021509278350515
scalar Thesis.node[94].nic.mac1609_4 ReceivedUnicastPackets 0
scalar Thesis.node[94].nic.mac1609_4 ReceivedBroadcasts 96
scalar Thesis.node[94].nic.mac1609_4 SentPackets 9
scalar Thesis.node[94].nic.mac1609_4 SentAcknowledgements 0
scalar Thesis.node[94].nic.mac1609_4 SNIRLostPackets 0
scalar Thesis.node[94].nic.mac1609_4 RXTXLostPackets 0
scalar Thesis.node[94].nic.mac1609_4 TotalLostPackets 0
scalar Thesis.node[94].nic.mac1609_4 DroppedPacketsInMac 0
scalar Thesis.node[94].nic.mac1609_4 TooLittleTime 0
scalar Thesis.node[94].nic.mac1609_4 TimesIntoBackoff 10
scalar Thesis.node[94].nic.mac1609_4 SlotsBackoff 13
scalar Thesis.node[94].nic.mac1609_4 NumInternalContention 0
scalar Thesis.node[94].nic.mac1609_4 totalBusyTime 0.022833
scalar Thesis.node[94].veinsmobility startTime 219
scalar Thesis.node[94].veinsmobility totalTime 96
scalar Thesis.node[94].veinsmobility stopTime 316
scalar Thesis.node[94].veinsmobility minSpeed 3.0036336103132
scalar Thesis.node[94].veinsmobility maxSpeed 15.634842791389
scalar Thesis.node[94].veinsmobility totalDistance 636.85152459389
scalar Thesis.node[94].veinsmobility totalCO2Emission 214.58708745043
scalar Thesis.node[82].appl generatedWSMs 8
scalar Thesis.node[82].appl receivedWSMs 137
scalar Thesis.node[82].appl generatedBSMs 1
scalar Thesis.node[82].appl receivedBSMs 23
scalar Thesis.node[82].appl generatedWSAs 0
scalar Thesis.node[82].appl receivedWSAs 0
scalar Thesis.node[82].nic.phy80211p busyTime 0.00027174803149606
scalar Thesis.node[82].nic.mac1609_4 ReceivedUnicastPackets 0
scalar Thesis.node[82].nic.mac1609_4 ReceivedBroadcasts 160
scalar Thesis.node[82].nic.mac1609_4 SentPackets 9
scalar Thesis.node[82].nic.mac1609_4 SentAcknowledgements 0
scalar Thesis.node[82].nic.mac1609_4 SNIRLostPackets 2
scalar Thesis.node[82].nic.mac1609_4 RXTXLostPackets 0
scalar Thesis.node[82].nic.mac1609_4 TotalLostPackets 2
scalar Thesis.node[82].nic.mac1609_4 DroppedPacketsInMac 0
scalar Thesis.node[82].nic.mac1609_4 TooLittleTime 0
scalar Thesis.node[82].nic.mac1609_4 TimesIntoBackoff 11
scalar Thesis.node[82].nic.mac1609_4 SlotsBackoff 16
scalar Thesis.node[82].nic.mac1609_4 NumInternalContention 0
scalar Thesis.node[82].nic.mac1609_4 totalBusyTime 0.036377
scalar Thesis.node[82].veinsmobility startTime 190
scalar Thesis.node[82].veinsmobility totalTime 126
scalar Thesis.node[82].veinsmobility stopTime 317
scalar Thesis.node[82].veinsmobility minSpeed 0
scalar Thesis.node[82].veinsmobility maxSpeed 15.261683215861
scalar Thesis.node[82].veinsmobility totalDistance 1135.9943927224
scalar Thesis.node[82].veinsmobility totalCO2Emission 277.53036738749
scalar Thesis.node[96].appl generatedWSMs 5
scalar Thesis.node[96].appl receivedWSMs 108
scalar Thesis.node[96].appl generatedBSMs 1
scalar Thesis.node[96].appl receivedBSMs 19
scalar Thesis.node[96].appl generatedWSAs 0
scalar Thesis.node[96].appl receivedWSAs 0
scalar Thesis.node[96].nic.phy80211p busyTime 0.00028757446808511
scalar Thesis.node[96].nic.mac1609_4 ReceivedUnicastPackets 0
scalar Thesis.node[96].nic.mac1609_4 ReceivedBroadcasts 127
scalar Thesis.node[96].nic.mac1609_4 SentPackets 6
scalar Thesis.node[96].nic.mac1609_4 SentAcknowledgements 0
scalar Thesis.node[96].nic.mac1609_4 SNIRLostPackets 0
scalar Thesis.node[96].nic.mac1609_4 RXTXLostPackets 0
scalar Thesis.node[96].nic.mac1609_4 TotalLostPackets 0
scalar Thesis.node[96].nic.mac1609_4 DroppedPacketsInMac 0
scalar Thesis.node[96].nic.mac1609_4 TooLittleTime 0
scalar Thesis.node[96].nic.mac1609_4 TimesIntoBackoff 6
scalar Thesis.node[96].nic.mac1609_4 SlotsBackoff 9
scalar Thesis.node[96].nic.mac1609_4 NumInternalContention 0
scalar Thesis.node[96].nic.mac1609_4 totalBusyTime 0.028302
scalar Thesis.node[96].veinsmobility startTime 223
scalar Thesis.node[96].veinsmobility totalTime 93
scalar Thesis.node[96].veinsmobility stopTime 317
scalar Thesis.node[96].veinsmobility minSpeed 0
scalar Thesis.node[96].veinsmobility maxSpeed 14.58917241593
scalar Thesis.node[96].veinsmobility totalDistance 803.95461057845
scalar Thesis.node[96].veinsmobility totalCO2Emission 285.22192609898
scalar Thesis.node[80].appl generatedWSMs 9
scalar Thesis.node[80].appl receivedWSMs 64
scalar Thesis.node[80].appl generatedBSMs 1
scalar Thesis.node[80].appl receivedBSMs 8
scalar Thesis.node[80].appl generatedWSAs 0
scalar Thesis.node[80].appl receivedWSAs 0
scalar Thesis.node[80].nic.phy80211p busyTime 0.00011969465648855
scalar Thesis.node[80].nic.mac1609_4 ReceivedUnicastPackets 0
scalar Thesis.node[80].nic.mac1609_4 ReceivedBroadcasts 72
scalar Thesis.node[80].nic.mac1609_4 SentPackets 10
scalar Thesis.node[80].nic.mac1609_4 SentAcknowledgements 0
scalar Thesis.node[80].nic.mac1609_4 SNIRLostPackets 0
scalar Thesis.node[80].nic.mac1609_4 RXTXLostPackets 0
scalar Thesis.node[80].nic.mac1609_4 TotalLostPackets 0
scalar Thesis.node[80].nic.mac1609_4 DroppedPacketsInMac 0
scalar Thesis.node[80].nic.mac1609_4 TooLittleTime 0
scalar Thesis.node[80].nic.mac1609_4 TimesIntoBackoff 10
scalar Thesis.node[80].nic.mac1609_4 SlotsBackoff 7
scalar Thesis.node[80].nic.mac1609_4 NumInternalContention 0
scalar Thesis.node[80].nic.mac1609_4 totalBusyTime 0.017882
scalar Thesis.node[80].veinsmobility startTime 186
scalar Thesis.node[80].veinsmobility totalTime 130
scalar Thesis.node[80].veinsmobility stopTime 317
scalar Thesis.node[80].veinsmobility minSpeed 0
scalar Thesis.node[80].veinsmobility maxSpeed 12.68729975942
scalar Thesis.node[80].veinsmobility totalDistance 828.27402017972
scalar Thesis.node[80].veinsmobility totalCO2Emission 284.16455380566
scalar Thesis.node[31].appl generatedWSMs 7
[...]
scalar Thesis.node[775].nic.mac1609_4 RXTXLostPackets 0
scalar Thesis.node[775].nic.mac1609_4 TotalLostPackets 9
scalar Thesis.node[775].nic.mac1609_4 DroppedPacketsInMac 0
scalar Thesis.node[775].nic.mac1609_4 TooLittleTime 0
scalar Thesis.node[775].nic.mac1609_4 TimesIntoBackoff 16
scalar Thesis.node[775].nic.mac1609_4 SlotsBackoff 17
scalar Thesis.node[775].nic.mac1609_4 NumInternalContention 0
scalar Thesis.node[775].nic.mac1609_4 totalBusyTime 0.183608
scalar Thesis.node[775].veinsmobility startTime 1836
scalar Thesis.node[775].veinsmobility totalTime 1164
scalar Thesis.node[775].veinsmobility stopTime 3000
scalar Thesis.node[775].veinsmobility minSpeed 0
scalar Thesis.node[775].veinsmobility maxSpeed 16.591964498521
scalar Thesis.node[775].veinsmobility totalDistance 475.3107120279
scalar Thesis.node[775].veinsmobility totalCO2Emission 1232.6856803354
scalar Thesis.node[776].appl generatedWSMs 9
scalar Thesis.node[776].appl receivedWSMs 732
scalar Thesis.node[776].appl generatedBSMs 1
scalar Thesis.node[776].appl receivedBSMs 89
scalar Thesis.node[776].appl generatedWSAs 0
scalar Thesis.node[776].appl receivedWSAs 0
scalar Thesis.node[776].nic.phy80211p busyTime 0.00015617931034483
scalar Thesis.node[776].nic.mac1609_4 ReceivedUnicastPackets 0
scalar Thesis.node[776].nic.mac1609_4 ReceivedBroadcasts 821
scalar Thesis.node[776].nic.mac1609_4 SentPackets 10
scalar Thesis.node[776].nic.mac1609_4 SentAcknowledgements 0
scalar Thesis.node[776].nic.mac1609_4 SNIRLostPackets 9
scalar Thesis.node[776].nic.mac1609_4 RXTXLostPackets 0
scalar Thesis.node[776].nic.mac1609_4 TotalLostPackets 9
scalar Thesis.node[776].nic.mac1609_4 DroppedPacketsInMac 0
scalar Thesis.node[776].nic.mac1609_4 TooLittleTime 0
scalar Thesis.node[776].nic.mac1609_4 TimesIntoBackoff 10
scalar Thesis.node[776].nic.mac1609_4 SlotsBackoff 16
scalar Thesis.node[776].nic.mac1609_4 NumInternalContention 0
scalar Thesis.node[776].nic.mac1609_4 totalBusyTime 0.18221
scalar Thesis.node[776].veinsmobility startTime 1840
scalar Thesis.node[776].veinsmobility totalTime 1160
scalar Thesis.node[776].veinsmobility stopTime 3000
scalar Thesis.node[776].veinsmobility minSpeed 0
scalar Thesis.node[776].veinsmobility maxSpeed 14.899824814655
scalar Thesis.node[776].veinsmobility totalDistance 377.89387784477
scalar Thesis.node[776].veinsmobility totalCO2Emission 1228.3245499889
scalar Thesis.node[777].appl generatedWSMs 7
scalar Thesis.node[777].appl receivedWSMs 1175
scalar Thesis.node[777].appl generatedBSMs 1
scalar Thesis.node[777].appl receivedBSMs 152
scalar Thesis.node[777].appl generatedWSAs 0
scalar Thesis.node[777].appl receivedWSAs 0
scalar Thesis.node[777].nic.phy80211p busyTime 0.00025468625756267
scalar Thesis.node[777].nic.mac1609_4 ReceivedUnicastPackets 0
scalar Thesis.node[777].nic.mac1609_4 ReceivedBroadcasts 1327
scalar Thesis.node[777].nic.mac1609_4 SentPackets 8
scalar Thesis.node[777].nic.mac1609_4 SentAcknowledgements 0
scalar Thesis.node[777].nic.mac1609_4 SNIRLostPackets 27
scalar Thesis.node[777].nic.mac1609_4 RXTXLostPackets 1
scalar Thesis.node[777].nic.mac1609_4 TotalLostPackets 28
scalar Thesis.node[777].nic.mac1609_4 DroppedPacketsInMac 0
scalar Thesis.node[777].nic.mac1609_4 TooLittleTime 0
scalar Thesis.node[777].nic.mac1609_4 TimesIntoBackoff 8
scalar Thesis.node[777].nic.mac1609_4 SlotsBackoff 8
scalar Thesis.node[777].nic.mac1609_4 NumInternalContention 0
scalar Thesis.node[777].nic.mac1609_4 totalBusyTime 0.292696
scalar Thesis.node[777].veinsmobility startTime 1843
scalar Thesis.node[777].veinsmobility totalTime 1157
scalar Thesis.node[777].veinsmobility stopTime 3000
scalar Thesis.node[777].veinsmobility minSpeed 0
scalar Thesis.node[777].veinsmobility maxSpeed 13.853279396841
scalar Thesis.node[777].veinsmobility totalDistance 823.24443159836
scalar Thesis.node[777].veinsmobility totalCO2Emission 1300.9450005124
scalar Thesis.node[785].appl generatedWSMs 9
scalar Thesis.node[785].appl receivedWSMs 730
scalar Thesis.node[785].appl generatedBSMs 1
scalar Thesis.node[785].appl receivedBSMs 89
scalar Thesis.node[785].appl generatedWSAs 0
scalar Thesis.node[785].appl receivedWSAs 0
scalar Thesis.node[785].nic.phy80211p busyTime 0.00015837335670465
scalar Thesis.node[785].nic.mac1609_4 ReceivedUnicastPackets 0
scalar Thesis.node[785].nic.mac1609_4 ReceivedBroadcasts 819
scalar Thesis.node[785].nic.mac1609_4 SentPackets 10
scalar Thesis.node[785].nic.mac1609_4 SentAcknowledgements 0
scalar Thesis.node[785].nic.mac1609_4 SNIRLostPackets 9
scalar Thesis.node[785].nic.mac1609_4 RXTXLostPackets 0
scalar Thesis.node[785].nic.mac1609_4 TotalLostPackets 9
scalar Thesis.node[785].nic.mac1609_4 DroppedPacketsInMac 0
scalar Thesis.node[785].nic.mac1609_4 TooLittleTime 0
scalar Thesis.node[785].nic.mac1609_4 TimesIntoBackoff 12
scalar Thesis.node[785].nic.mac1609_4 SlotsBackoff 17
scalar Thesis.node[785].nic.mac1609_4 NumInternalContention 0
scalar Thesis.node[785].nic.mac1609_4 totalBusyTime 0.181746
scalar Thesis.node[785].veinsmobility startTime 1859
scalar Thesis.node[785].veinsmobility totalTime 1141
scalar Thesis.node[785].veinsmobility stopTime 3000
scalar Thesis.node[785].veinsmobility minSpeed 0
scalar Thesis.node[785].veinsmobility maxSpeed 10.777606811547
scalar Thesis.node[785].veinsmobility totalDistance 183.44072610055
scalar Thesis.node[785].veinsmobility totalCO2Emission 1157.429749332
scalar Thesis.node[789].appl generatedWSMs 8
scalar Thesis.node[789].appl receivedWSMs 1096
scalar Thesis.node[789].appl generatedBSMs 1
scalar Thesis.node[789].appl receivedBSMs 147
scalar Thesis.node[789].appl generatedWSAs 0
scalar Thesis.node[789].appl receivedWSAs 0
scalar Thesis.node[789].nic.phy80211p busyTime 0.00024180759046779
scalar Thesis.node[789].nic.mac1609_4 ReceivedUnicastPackets 0
scalar Thesis.node[789].nic.mac1609_4 ReceivedBroadcasts 1243
scalar Thesis.node[789].nic.mac1609_4 SentPackets 9
scalar Thesis.node[789].nic.mac1609_4 SentAcknowledgements 0
scalar Thesis.node[789].nic.mac1609_4 SNIRLostPackets 19
scalar Thesis.node[789].nic.mac1609_4 RXTXLostPackets 1
scalar Thesis.node[789].nic.mac1609_4 TotalLostPackets 20
scalar Thesis.node[789].nic.mac1609_4 DroppedPacketsInMac 0
scalar Thesis.node[789].nic.mac1609_4 TooLittleTime 0
scalar Thesis.node[789].nic.mac1609_4 TimesIntoBackoff 9
scalar Thesis.node[789].nic.mac1609_4 SlotsBackoff 12
scalar Thesis.node[789].nic.mac1609_4 NumInternalContention 0
scalar Thesis.node[789].nic.mac1609_4 totalBusyTime 0.272457
scalar Thesis.node[789].veinsmobility startTime 1867
scalar Thesis.node[789].veinsmobility totalTime 1133
scalar Thesis.node[789].veinsmobility stopTime 3000
scalar Thesis.node[789].veinsmobility minSpeed 0
scalar Thesis.node[789].veinsmobility maxSpeed 14.893724671245
scalar Thesis.node[789].veinsmobility totalDistance 1378.97676236
scalar Thesis.node[789].veinsmobility totalCO2Emission 1386.9529804874
scalar Thesis.node[790].appl generatedWSMs 15
scalar Thesis.node[790].appl receivedWSMs 734
scalar Thesis.node[790].appl generatedBSMs 1
scalar Thesis.node[790].appl receivedBSMs 89
scalar Thesis.node[790].appl generatedWSAs 0
scalar Thesis.node[790].appl receivedWSAs 0
scalar Thesis.node[790].nic.phy80211p busyTime 0.00016059416445624
scalar Thesis.node[790].nic.mac1609_4 ReceivedUnicastPackets 0
scalar Thesis.node[790].nic.mac1609_4 ReceivedBroadcasts 823
scalar Thesis.node[790].nic.mac1609_4 SentPackets 16
scalar Thesis.node[790].nic.mac1609_4 SentAcknowledgements 0
scalar Thesis.node[790].nic.mac1609_4 SNIRLostPackets 9
scalar Thesis.node[790].nic.mac1609_4 RXTXLostPackets 0
scalar Thesis.node[790].nic.mac1609_4 TotalLostPackets 9
scalar Thesis.node[790].nic.mac1609_4 DroppedPacketsInMac 0
scalar Thesis.node[790].nic.mac1609_4 TooLittleTime 0
scalar Thesis.node[790].nic.mac1609_4 TimesIntoBackoff 17
scalar Thesis.node[790].nic.mac1609_4 SlotsBackoff 27
scalar Thesis.node[790].nic.mac1609_4 NumInternalContention 0
scalar Thesis.node[790].nic.mac1609_4 totalBusyTime 0.184072
scalar Thesis.node[790].veinsmobility startTime 1869
scalar Thesis.node[790].veinsmobility totalTime 1131
scalar Thesis.node[790].veinsmobility stopTime 3000
scalar Thesis.node[790].veinsmobility minSpeed 0
scalar Thesis.node[790].veinsmobility maxSpeed 13.575955969838
scalar Thesis.node[790].veinsmobility totalDistance 235.10934168688
scalar Thesis.node[790].veinsmobility totalCO2Emission 1155.0223776802
scalar Thesis.node[793].appl generatedWSMs 7
scalar Thesis.node[793].appl receivedWSMs 1091
scalar Thesis.node[793].appl generatedBSMs 1
scalar Thesis.node[793].appl receivedBSMs 150
scalar Thesis.node[793].appl generatedWSAs 0
scalar Thesis.node[793].appl receivedWSAs 0
scalar Thesis.node[793].nic.phy80211p busyTime 0.00024520464700626
scalar Thesis.node[793].nic.mac1609_4 ReceivedUnicastPackets 0
scalar Thesis.node[793].nic.mac1609_4 ReceivedBroadcasts 1241
scalar Thesis.node[793].nic.mac1609_4 SentPackets 8
scalar Thesis.node[793].nic.mac1609_4 SentAcknowledgements 0
scalar Thesis.node[793].nic.mac1609_4 SNIRLostPackets 25
scalar Thesis.node[793].nic.mac1609_4 RXTXLostPackets 0
scalar Thesis.node[793].nic.mac1609_4 TotalLostPackets 25
scalar Thesis.node[793].nic.mac1609_4 DroppedPacketsInMac 0
scalar Thesis.node[793].nic.mac1609_4 TooLittleTime 0
scalar Thesis.node[793].nic.mac1609_4 TimesIntoBackoff 8
scalar Thesis.node[793].nic.mac1609_4 SlotsBackoff 12
scalar Thesis.node[793].nic.mac1609_4 NumInternalContention 0
scalar Thesis.node[793].nic.mac1609_4 totalBusyTime 0.27217601371
scalar Thesis.node[793].veinsmobility startTime 1881
scalar Thesis.node[793].veinsmobility totalTime 1119
scalar Thesis.node[793].veinsmobility stopTime 3000
scalar Thesis.node[793].veinsmobility minSpeed 0
scalar Thesis.node[793].veinsmobility maxSpeed 12.222483044216
scalar Thesis.node[793].veinsmobility totalDistance 1137.4531381876
scalar Thesis.node[793].veinsmobility totalCO2Emission 1286.6780763192
scalar Thesis.node[798].appl generatedWSMs 7
scalar Thesis.node[798].appl receivedWSMs 777
scalar Thesis.node[798].appl generatedBSMs 1
scalar Thesis.node[798].appl receivedBSMs 86
scalar Thesis.node[798].appl generatedWSAs 0
scalar Thesis.node[798].appl receivedWSAs 0
scalar Thesis.node[798].nic.phy80211p busyTime 0.00017332850678733
scalar Thesis.node[798].nic.mac1609_4 ReceivedUnicastPackets 0
scalar Thesis.node[798].nic.mac1609_4 ReceivedBroadcasts 863
scalar Thesis.node[798].nic.mac1609_4 SentPackets 8
scalar Thesis.node[798].nic.mac1609_4 SentAcknowledgements 0
scalar Thesis.node[798].nic.mac1609_4 SNIRLostPackets 10
scalar Thesis.node[798].nic.mac1609_4 RXTXLostPackets 0
scalar Thesis.node[798].nic.mac1609_4 TotalLostPackets 10
scalar Thesis.node[798].nic.mac1609_4 DroppedPacketsInMac 0
scalar Thesis.node[798].nic.mac1609_4 TooLittleTime 0
scalar Thesis.node[798].nic.mac1609_4 TimesIntoBackoff 8
scalar Thesis.node[798].nic.mac1609_4 SlotsBackoff 10
scalar Thesis.node[798].nic.mac1609_4 NumInternalContention 0
scalar Thesis.node[798].nic.mac1609_4 totalBusyTime 0.191872
scalar Thesis.node[798].veinsmobility startTime 1895
scalar Thesis.node[798].veinsmobility totalTime 1105
scalar Thesis.node[798].veinsmobility stopTime 3000
scalar Thesis.node[798].veinsmobility minSpeed 0
scalar Thesis.node[798].veinsmobility maxSpeed 16.744008374664
scalar Thesis.node[798].veinsmobility totalDistance 199.84798366258
scalar Thesis.node[798].veinsmobility totalCO2Emission 1137.9501085826
scalar Thesis.node[810].appl generatedWSMs 6
scalar Thesis.node[810].appl receivedWSMs 1128
scalar Thesis.node[810].appl generatedBSMs 1
scalar Thesis.node[810].appl receivedBSMs 145
scalar Thesis.node[810].appl generatedWSAs 0
scalar Thesis.node[810].appl receivedWSAs 0
scalar Thesis.node[810].nic.phy80211p busyTime 0.00026001105990784
scalar Thesis.node[810].nic.mac1609_4 ReceivedUnicastPackets 0
scalar Thesis.node[810].nic.mac1609_4 ReceivedBroadcasts 1273
scalar Thesis.node[810].nic.mac1609_4 SentPackets 7
scalar Thesis.node[810].nic.mac1609_4 SentAcknowledgements 0
scalar Thesis.node[810].nic.mac1609_4 SNIRLostPackets 23
scalar Thesis.node[810].nic.mac1609_4 RXTXLostPackets 0
scalar Thesis.node[810].nic.mac1609_4 TotalLostPackets 23
scalar Thesis.node[810].nic.mac1609_4 DroppedPacketsInMac 0
scalar Thesis.node[810].nic.mac1609_4 TooLittleTime 0
scalar Thesis.node[810].nic.mac1609_4 TimesIntoBackoff 8
scalar Thesis.node[810].nic.mac1609_4 SlotsBackoff 17
scalar Thesis.node[810].nic.mac1609_4 NumInternalContention 0
scalar Thesis.node[810].nic.mac1609_4 totalBusyTime 0.280135
scalar Thesis.node[810].veinsmobility startTime 1915
scalar Thesis.node[810].veinsmobility totalTime 1085
scalar Thesis.node[810].veinsmobility stopTime 3000
scalar Thesis.node[810].veinsmobility minSpeed 0
scalar Thesis.node[810].veinsmobility maxSpeed 15.359737780509
scalar Thesis.node[810].veinsmobility totalDistance 1605.9532660037
scalar Thesis.node[810].veinsmobility totalCO2Emission 1376.8423850804
scalar Thesis.node[819].appl generatedWSMs 7
scalar Thesis.node[819].appl receivedWSMs 1044
scalar Thesis.node[819].appl generatedBSMs 1
scalar Thesis.node[819].appl receivedBSMs 137
scalar Thesis.node[819].appl generatedWSAs 0
scalar Thesis.node[819].appl receivedWSAs 0
scalar Thesis.node[819].nic.phy80211p busyTime 0.00024618284637135
scalar Thesis.node[819].nic.mac1609_4 ReceivedUnicastPackets 0
scalar Thesis.node[819].nic.mac1609_4 ReceivedBroadcasts 1181
scalar Thesis.node[819].nic.mac1609_4 SentPackets 8
scalar Thesis.node[819].nic.mac1609_4 SentAcknowledgements 0
scalar Thesis.node[819].nic.mac1609_4 SNIRLostPackets 21
scalar Thesis.node[819].nic.mac1609_4 RXTXLostPackets 0
scalar Thesis.node[819].nic.mac1609_4 TotalLostPackets 21
scalar Thesis.node[819].nic.mac1609_4 DroppedPacketsInMac 0
scalar Thesis.node[819].nic.mac1609_4 TooLittleTime 0
scalar Thesis.node[819].nic.mac1609_4 TimesIntoBackoff 8
scalar Thesis.node[819].nic.mac1609_4 SlotsBackoff 18
scalar Thesis.node[819].nic.mac1609_4 NumInternalContention 0
scalar Thesis.node[819].nic.mac1609_4 totalBusyTime 0.259224
scalar Thesis.node[819].veinsmobility startTime 1939
scalar Thesis.node[819].veinsmobility totalTime 1061
scalar Thesis.node[819].veinsmobility stopTime 3000
scalar Thesis.node[819].veinsmobility minSpeed 0
scalar Thesis.node[819].veinsmobility maxSpeed 23.568553905398
scalar Thesis.node[819].veinsmobility totalDistance 1703.6949574154
scalar Thesis.node[819].veinsmobility totalCO2Emission 1383.0941375031
scalar Thesis.node[1285].appl generatedWSMs 0
scalar Thesis.node[1285].appl receivedWSMs 0
scalar Thesis.node[1285].appl generatedBSMs 0
scalar Thesis.node[1285].appl receivedBSMs 0
scalar Thesis.node[1285].appl generatedWSAs 0
scalar Thesis.node[1285].appl receivedWSAs 0
scalar Thesis.node[1285].nic.phy80211p busyTime 0
scalar Thesis.node[1285].nic.mac1609_4 ReceivedUnicastPackets 0
scalar Thesis.node[1285].nic.mac1609_4 ReceivedBroadcasts 0
scalar Thesis.node[1285].nic.mac1609_4 SentPackets 0
scalar Thesis.node[1285].nic.mac1609_4 SentAcknowledgements 0
scalar Thesis.node[1285].nic.mac1609_4 SNIRLostPackets 0
scalar Thesis.node[1285].nic.mac1609_4 RXTXLostPackets 0
scalar Thesis.node[1285].nic.mac1609_4 TotalLostPackets 0
scalar Thesis.node[1285].nic.mac1609_4 DroppedPacketsInMac 0
scalar Thesis.node[1285].nic.mac1609_4 TooLittleTime 0
scalar Thesis.node[1285].nic.mac1609_4 TimesIntoBackoff 0
scalar Thesis.node[1285].nic.mac1609_4 SlotsBackoff 0
scalar Thesis.node[1285].nic.mac1609_4 NumInternalContention 0
scalar Thesis.node[1285].nic.mac1609_4 totalBusyTime 0
scalar Thesis.node[1285].veinsmobility startTime 2971
scalar Thesis.node[1285].veinsmobility totalTime 29
scalar Thesis.node[1285].veinsmobility stopTime 3000
scalar Thesis.node[1285].veinsmobility minSpeed 0
scalar Thesis.node[1285].veinsmobility maxSpeed 0.44690627497912
scalar Thesis.node[1285].veinsmobility totalDistance 1.2801455480211
scalar Thesis.node[1285].veinsmobility totalCO2Emission 27.401416147102
scalar Thesis.node[1273].appl generatedWSMs 0
scalar Thesis.node[1273].appl receivedWSMs 0
scalar Thesis.node[1273].appl generatedBSMs 0
scalar Thesis.node[1273].appl receivedBSMs 0
scalar Thesis.node[1273].appl generatedWSAs 0
scalar Thesis.node[1273].appl receivedWSAs 0
scalar Thesis.node[1273].nic.phy80211p busyTime 0
scalar Thesis.node[1273].nic.mac1609_4 ReceivedUnicastPackets 0
scalar Thesis.node[1273].nic.mac1609_4 ReceivedBroadcasts 0
scalar Thesis.node[1273].nic.mac1609_4 SentPackets 0
scalar Thesis.node[1273].nic.mac1609_4 SentAcknowledgements 0
scalar Thesis.node[1273].nic.mac1609_4 SNIRLostPackets 0
scalar Thesis.node[1273].nic.mac1609_4 RXTXLostPackets 0
scalar Thesis.node[1273].nic.mac1609_4 TotalLostPackets 0
scalar Thesis.node[1273].nic.mac1609_4 DroppedPacketsInMac 0
scalar Thesis.node[1273].nic.mac1609_4 TooLittleTime 0
scalar Thesis.node[1273].nic.mac1609_4 TimesIntoBackoff 0
scalar Thesis.node[1273].nic.mac1609_4 SlotsBackoff 0
scalar Thesis.node[1273].nic.mac1609_4 NumInternalContention 0
scalar Thesis.node[1273].nic.mac1609_4 totalBusyTime 0
scalar Thesis.node[1273].veinsmobility startTime 2950
scalar Thesis.node[1273].veinsmobility totalTime 50
scalar Thesis.node[1273].veinsmobility stopTime 3000
scalar Thesis.node[1273].veinsmobility minSpeed 0
scalar Thesis.node[1273].veinsmobility maxSpeed 9.7036879454472
scalar Thesis.node[1273].veinsmobility totalDistance 25.251585049297
scalar Thesis.node[1273].veinsmobility totalCO2Emission 48.409532306702
scalar Thesis.node[855].appl generatedWSMs 6
scalar Thesis.node[855].appl receivedWSMs 919
scalar Thesis.node[855].appl generatedBSMs 1
scalar Thesis.node[855].appl receivedBSMs 108
scalar Thesis.node[855].appl generatedWSAs 0
scalar Thesis.node[855].appl receivedWSAs 0
scalar Thesis.node[855].nic.phy80211p busyTime 0.00023303643724697
scalar Thesis.node[855].nic.mac1609_4 ReceivedUnicastPackets 0
scalar Thesis.node[855].nic.mac1609_4 ReceivedBroadcasts 1027
scalar Thesis.node[855].nic.mac1609_4 SentPackets 7
scalar Thesis.node[855].nic.mac1609_4 SentAcknowledgements 0
scalar Thesis.node[855].nic.mac1609_4 SNIRLostPackets 25
scalar Thesis.node[855].nic.mac1609_4 RXTXLostPackets 0
scalar Thesis.node[855].nic.mac1609_4 TotalLostPackets 25
scalar Thesis.node[855].nic.mac1609_4 DroppedPacketsInMac 0
scalar Thesis.node[855].nic.mac1609_4 TooLittleTime 0
scalar Thesis.node[855].nic.mac1609_4 TimesIntoBackoff 8
scalar Thesis.node[855].nic.mac1609_4 SlotsBackoff 10
scalar Thesis.node[855].nic.mac1609_4 NumInternalContention 0
scalar Thesis.node[855].nic.mac1609_4 totalBusyTime 0.228495
scalar Thesis.node[855].veinsmobility startTime 2012
scalar Thesis.node[855].veinsmobility totalTime 988
scalar Thesis.node[855].veinsmobility stopTime 3000
scalar Thesis.node[855].veinsmobility minSpeed 0
scalar Thesis.node[855].veinsmobility maxSpeed 14.012062232099
scalar Thesis.node[855].veinsmobility totalDistance 228.45054446297
scalar Thesis.node[855].veinsmobility totalCO2Emission 1018.6754573915
scalar Thesis.manager roiArea 0
scalar Thesis.rsu[0].appl generatedWSMs 1
scalar Thesis.rsu[0].appl receivedWSMs 806
scalar Thesis.rsu[0].appl generatedBSMs 70
scalar Thesis.rsu[0].appl receivedBSMs 151
scalar Thesis.rsu[0].appl generatedWSAs 0
scalar Thesis.rsu[0].appl receivedWSAs 0
scalar Thesis.rsu[0].nic.phy80211p busyTime 6.7600000000001e-005
scalar Thesis.rsu[0].nic.mac1609_4 ReceivedUnicastPackets 0
scalar Thesis.rsu[0].nic.mac1609_4 ReceivedBroadcasts 957
scalar Thesis.rsu[0].nic.mac1609_4 SentPackets 71
scalar Thesis.rsu[0].nic.mac1609_4 SentAcknowledgements 0
scalar Thesis.rsu[0].nic.mac1609_4 SNIRLostPackets 1
scalar Thesis.rsu[0].nic.mac1609_4 RXTXLostPackets 0
scalar Thesis.rsu[0].nic.mac1609_4 TotalLostPackets 1
scalar Thesis.rsu[0].nic.mac1609_4 DroppedPacketsInMac 0
scalar Thesis.rsu[0].nic.mac1609_4 TooLittleTime 0
scalar Thesis.rsu[0].nic.mac1609_4 TimesIntoBackoff 71
scalar Thesis.rsu[0].nic.mac1609_4 SlotsBackoff 104
scalar Thesis.rsu[0].nic.mac1609_4 NumInternalContention 0
scalar Thesis.rsu[0].nic.mac1609_4 totalBusyTime 0.210279

