file 36801810 1592589344                                        
version 2
run General-0-20200619-13:49:02-13944
attr configname General
attr datetime 20200619-13:49:02
attr experiment General
attr inifile omnetpp.ini
attr iterationvars ""
attr iterationvarsf ""
attr measurement ""
attr network globcomm.simulation.Thesis
attr processid 13944
attr repetition 0
attr replication #0
attr resultdir results
attr runnumber 0
attr seedset 0
param **.debug false
param **.coreDebug false
param *.playgroundSizeX 5000m
param *.playgroundSizeY 5000m
param *.playgroundSizeZ 500m
param *.annotations.draw true
param *.manager.updateInterval 1s
param *.manager.host "\"localhost\""
param *.manager.port 9999
param *.manager.autoShutdown true
param *.manager.launchConfig "xmldoc(\"erlangen.launchd.xml\")"
param Thesis.rsu[0].mobility.x 2000
param Thesis.rsu[0].mobility.y 1000
param Thesis.rsu[0].mobility.z 3
param *.rsu[*].applType "\"globcomm.src.RSU11p\""
param *.rsu[*].appl.headerLength "80 bit"
param *.rsu[*].appl.sendBeacons false
param *.rsu[*].appl.dataOnSch false
param *.rsu[*].appl.beaconInterval 1s
param *.rsu[*].appl.beaconUserPriority 7
param *.rsu[*].appl.dataUserPriority 5
param *.connectionManager.sendDirect true
param *.connectionManager.maxInterfDist 400m
param *.connectionManager.drawMaxIntfDist true
param *.**.nic.mac1609_4.useServiceChannel false
param *.**.nic.mac1609_4.txPower 30mW
param *.**.nic.mac1609_4.bitrate 6Mbps
param *.**.nic.phy80211p.sensitivity -89dBm
param *.**.nic.phy80211p.useThermalNoise true
param *.**.nic.phy80211p.thermalNoise -110dBm
param *.**.nic.phy80211p.decider "xmldoc(\"config.xml\")"
param *.**.nic.phy80211p.analogueModels "xmldoc(\"config.xml\")"
param *.**.nic.phy80211p.usePropagationDelay true
param *.**.nic.phy80211p.antenna "xmldoc(\"antenna.xml\", \"/root/Antenna[@id='monopole']\")"
param *.node[*].applType "\"globcomm.src.MyThesisApp\""
param *.node[*].appl.headerLength "80 bit"
param *.node[*].appl.sendBeacons false
param *.node[*].appl.dataOnSch false
param *.node[*].appl.beaconInterval 1s
param *.node[*].veinsmobilityType.debug true
param *.node[*].veinsmobility.x 0
param *.node[*].veinsmobility.y 0
param *.node[*].veinsmobility.z 1.895
param *.node[*].veinsmobility.accidentCount 0
param *.node[*].veinsmobility.accidentStart 75s
param *.node[*].veinsmobility.accidentDuration 50s
param Thesis.manager.numVehicles 5

vector 0 Thesis.node[0].veinsmobility posx ETV
vector 1 Thesis.node[0].veinsmobility posy ETV
vector 2 Thesis.node[0].veinsmobility speed ETV
vector 3 Thesis.node[1].veinsmobility posx ETV
vector 4 Thesis.node[1].veinsmobility posy ETV
vector 5 Thesis.node[2].veinsmobility posx ETV
vector 6 Thesis.node[2].veinsmobility posy ETV
vector 7 Thesis.node[0].veinsmobility acceleration ETV
vector 8 Thesis.node[0].veinsmobility co2emission ETV
vector 9 Thesis.node[3].veinsmobility posx ETV
vector 10 Thesis.node[3].veinsmobility posy ETV
vector 11 Thesis.node[1].veinsmobility speed ETV
vector 12 Thesis.node[2].veinsmobility speed ETV
vector 13 Thesis.node[4].veinsmobility posx ETV
vector 14 Thesis.node[4].veinsmobility posy ETV
vector 15 Thesis.node[5].veinsmobility posx ETV
vector 16 Thesis.node[5].veinsmobility posy ETV
vector 17 Thesis.node[1].veinsmobility acceleration ETV
vector 18 Thesis.node[1].veinsmobility co2emission ETV
vector 19 Thesis.node[2].veinsmobility acceleration ETV
vector 20 Thesis.node[2].veinsmobility co2emission ETV
vector 21 Thesis.node[3].veinsmobility speed ETV
vector 22 Thesis.node[6].veinsmobility posx ETV
vector 23 Thesis.node[6].veinsmobility posy ETV
vector 24 Thesis.node[3].veinsmobility acceleration ETV
vector 25 Thesis.node[3].veinsmobility co2emission ETV
vector 26 Thesis.node[4].veinsmobility speed ETV
vector 27 Thesis.node[5].veinsmobility speed ETV
vector 28 Thesis.node[7].veinsmobility posx ETV
vector 29 Thesis.node[7].veinsmobility posy ETV
vector 30 Thesis.node[4].veinsmobility acceleration ETV
vector 31 Thesis.node[4].veinsmobility co2emission ETV
vector 32 Thesis.node[5].veinsmobility acceleration ETV
vector 33 Thesis.node[5].veinsmobility co2emission ETV
vector 34 Thesis.node[6].veinsmobility speed ETV
vector 35 Thesis.node[6].veinsmobility acceleration ETV
vector 36 Thesis.node[6].veinsmobility co2emission ETV
vector 37 Thesis.node[7].veinsmobility speed ETV
vector 38 Thesis.node[8].veinsmobility posx ETV
vector 39 Thesis.node[8].veinsmobility posy ETV
vector 40 Thesis.node[7].veinsmobility acceleration ETV
vector 41 Thesis.node[7].veinsmobility co2emission ETV
vector 42 Thesis.node[8].veinsmobility speed ETV
vector 43 Thesis.node[9].veinsmobility posx ETV
vector 44 Thesis.node[9].veinsmobility posy ETV
vector 45 Thesis.node[8].veinsmobility acceleration ETV
vector 46 Thesis.node[8].veinsmobility co2emission ETV
vector 47 Thesis.node[9].veinsmobility speed ETV
vector 48 Thesis.node[10].veinsmobility posx ETV
vector 49 Thesis.node[10].veinsmobility posy ETV
vector 50 Thesis.node[9].veinsmobility acceleration ETV
vector 51 Thesis.node[9].veinsmobility co2emission ETV
vector 52 Thesis.node[10].veinsmobility speed ETV
vector 53 Thesis.node[11].veinsmobility posx ETV
vector 54 Thesis.node[11].veinsmobility posy ETV
vector 55 Thesis.node[10].veinsmobility acceleration ETV
vector 56 Thesis.node[10].veinsmobility co2emission ETV
vector 57 Thesis.node[11].veinsmobility speed ETV
vector 58 Thesis.node[12].veinsmobility posx ETV
vector 59 Thesis.node[12].veinsmobility posy ETV
vector 60 Thesis.node[11].veinsmobility acceleration ETV
vector 61 Thesis.node[11].veinsmobility co2emission ETV
vector 62 Thesis.node[12].veinsmobility speed ETV
vector 63 Thesis.node[12].veinsmobility acceleration ETV
vector 64 Thesis.node[12].veinsmobility co2emission ETV
vector 65 Thesis.node[13].veinsmobility posx ETV
vector 66 Thesis.node[13].veinsmobility posy ETV
vector 67 Thesis.node[13].veinsmobility speed ETV
vector 68 Thesis.node[14].veinsmobility posx ETV
vector 69 Thesis.node[14].veinsmobility posy ETV
vector 70 Thesis.node[13].veinsmobility acceleration ETV
vector 71 Thesis.node[13].veinsmobility co2emission ETV
vector 72 Thesis.node[14].veinsmobility speed ETV
vector 73 Thesis.node[14].veinsmobility acceleration ETV
vector 74 Thesis.node[14].veinsmobility co2emission ETV
vector 75 Thesis.node[15].veinsmobility posx ETV
vector 76 Thesis.node[15].veinsmobility posy ETV
vector 77 Thesis.node[15].veinsmobility speed ETV
vector 78 Thesis.node[15].veinsmobility acceleration ETV
vector 79 Thesis.node[15].veinsmobility co2emission ETV
vector 80 Thesis.node[16].veinsmobility posx ETV
vector 81 Thesis.node[16].veinsmobility posy ETV
vector 82 Thesis.node[16].veinsmobility speed ETV
vector 83 Thesis.node[16].veinsmobility acceleration ETV
vector 84 Thesis.node[16].veinsmobility co2emission ETV
vector 85 Thesis.node[17].veinsmobility posx ETV
vector 86 Thesis.node[17].veinsmobility posy ETV
vector 87 Thesis.node[17].veinsmobility speed ETV
vector 88 Thesis.node[18].veinsmobility posx ETV
vector 89 Thesis.node[18].veinsmobility posy ETV
vector 90 Thesis.node[17].veinsmobility acceleration ETV
vector 91 Thesis.node[17].veinsmobility co2emission ETV
vector 92 Thesis.node[18].veinsmobility speed ETV
vector 93 Thesis.node[18].veinsmobility acceleration ETV
vector 94 Thesis.node[18].veinsmobility co2emission ETV
vector 95 Thesis.node[19].veinsmobility posx ETV
vector 96 Thesis.node[19].veinsmobility posy ETV
vector 97 Thesis.node[19].veinsmobility speed ETV
vector 98 Thesis.node[19].veinsmobility acceleration ETV
vector 99 Thesis.node[19].veinsmobility co2emission ETV
vector 100 Thesis.node[20].veinsmobility posx ETV
vector 101 Thesis.node[20].veinsmobility posy ETV
vector 102 Thesis.node[20].veinsmobility speed ETV
vector 103 Thesis.node[21].veinsmobility posx ETV
vector 104 Thesis.node[21].veinsmobility posy ETV
vector 105 Thesis.node[20].veinsmobility acceleration ETV
vector 106 Thesis.node[20].veinsmobility co2emission ETV
vector 107 Thesis.node[21].veinsmobility speed ETV
vector 108 Thesis.node[22].veinsmobility posx ETV
vector 109 Thesis.node[22].veinsmobility posy ETV
vector 110 Thesis.node[21].veinsmobility acceleration ETV
vector 111 Thesis.node[21].veinsmobility co2emission ETV
vector 112 Thesis.node[22].veinsmobility speed ETV
vector 113 Thesis.node[23].veinsmobility posx ETV
vector 114 Thesis.node[23].veinsmobility posy ETV
vector 115 Thesis.node[22].veinsmobility acceleration ETV
vector 116 Thesis.node[22].veinsmobility co2emission ETV
vector 117 Thesis.node[23].veinsmobility speed ETV
vector 118 Thesis.node[24].veinsmobility posx ETV
vector 119 Thesis.node[24].veinsmobility posy ETV
vector 120 Thesis.node[23].veinsmobility acceleration ETV
vector 121 Thesis.node[23].veinsmobility co2emission ETV
vector 122 Thesis.node[24].veinsmobility speed ETV
vector 123 Thesis.node[25].veinsmobility posx ETV
vector 124 Thesis.node[25].veinsmobility posy ETV
vector 125 Thesis.node[24].veinsmobility acceleration ETV
vector 126 Thesis.node[24].veinsmobility co2emission ETV
vector 127 Thesis.node[25].veinsmobility speed ETV
vector 128 Thesis.node[26].veinsmobility posx ETV
vector 129 Thesis.node[26].veinsmobility posy ETV
vector 130 Thesis.node[25].veinsmobility acceleration ETV
vector 131 Thesis.node[25].veinsmobility co2emission ETV
vector 132 Thesis.node[26].veinsmobility speed ETV
vector 133 Thesis.node[27].veinsmobility posx ETV
vector 134 Thesis.node[27].veinsmobility posy ETV
vector 135 Thesis.node[26].veinsmobility acceleration ETV
vector 136 Thesis.node[26].veinsmobility co2emission ETV
vector 137 Thesis.node[27].veinsmobility speed ETV
vector 138 Thesis.node[28].veinsmobility posx ETV
vector 139 Thesis.node[28].veinsmobility posy ETV
vector 140 Thesis.node[27].veinsmobility acceleration ETV
vector 141 Thesis.node[27].veinsmobility co2emission ETV
vector 142 Thesis.node[28].veinsmobility speed ETV
vector 143 Thesis.node[29].veinsmobility posx ETV
vector 144 Thesis.node[29].veinsmobility posy ETV
vector 145 Thesis.node[28].veinsmobility acceleration ETV
vector 146 Thesis.node[28].veinsmobility co2emission ETV
vector 147 Thesis.node[29].veinsmobility speed ETV
vector 148 Thesis.node[30].veinsmobility posx ETV
vector 149 Thesis.node[30].veinsmobility posy ETV
vector 150 Thesis.node[29].veinsmobility acceleration ETV
vector 151 Thesis.node[29].veinsmobility co2emission ETV
vector 152 Thesis.node[30].veinsmobility speed ETV
vector 153 Thesis.node[30].veinsmobility acceleration ETV
vector 154 Thesis.node[30].veinsmobility co2emission ETV
vector 155 Thesis.node[31].veinsmobility posx ETV
vector 156 Thesis.node[31].veinsmobility posy ETV
vector 157 Thesis.node[31].veinsmobility speed ETV
vector 158 Thesis.node[32].veinsmobility posx ETV
vector 159 Thesis.node[32].veinsmobility posy ETV
vector 160 Thesis.node[31].veinsmobility acceleration ETV
vector 161 Thesis.node[31].veinsmobility co2emission ETV
79	11008 1148 2005 31685 29 75 47 0.973 12.393117471133 146.76399249837 880.86992638559
78	12156 1322 2005 31685 29 75 47 -3.5573741871634 2.5047654783074 4.1187757472677 140.82132487316
77	13478 1283 2004 31685 28 75 48 0 20.98933895213 380.70425491787 4716.8737021542
76	14761 1378 2003 31685 27 75 49 713.325913084 803.33636530269 36899.142782714 27821854.712136
75	16139 1381 2003 31685 27 75 49 2307.194239718 2620.16064488 119894.958339 293999913.35594
vector 162 Thesis.node[32].veinsmobility speed ETV
vector 163 Thesis.node[32].veinsmobility acceleration ETV
vector 164 Thesis.node[32].veinsmobility co2emission ETV
vector 165 Thesis.node[33].veinsmobility posx ETV
vector 166 Thesis.node[33].veinsmobility posy ETV
vector 167 Thesis.node[33].veinsmobility speed ETV
vector 168 Thesis.node[34].veinsmobility posx ETV
vector 169 Thesis.node[34].veinsmobility posy ETV
vector 170 Thesis.node[33].veinsmobility acceleration ETV
vector 171 Thesis.node[33].veinsmobility co2emission ETV
vector 172 Thesis.node[34].veinsmobility speed ETV
vector 173 Thesis.node[35].veinsmobility posx ETV
vector 174 Thesis.node[35].veinsmobility posy ETV
vector 175 Thesis.node[34].veinsmobility acceleration ETV
vector 176 Thesis.node[34].veinsmobility co2emission ETV
vector 177 Thesis.node[35].veinsmobility speed ETV
vector 178 Thesis.node[36].veinsmobility posx ETV
vector 179 Thesis.node[36].veinsmobility posy ETV
vector 180 Thesis.node[35].veinsmobility acceleration ETV
vector 181 Thesis.node[35].veinsmobility co2emission ETV
vector 182 Thesis.node[36].veinsmobility speed ETV
vector 183 Thesis.node[37].veinsmobility posx ETV
vector 184 Thesis.node[37].veinsmobility posy ETV
vector 185 Thesis.node[36].veinsmobility acceleration ETV
vector 186 Thesis.node[36].veinsmobility co2emission ETV
vector 187 Thesis.node[37].veinsmobility speed ETV
vector 188 Thesis.node[38].veinsmobility posx ETV
vector 189 Thesis.node[38].veinsmobility posy ETV
vector 190 Thesis.node[37].veinsmobility acceleration ETV
vector 191 Thesis.node[37].veinsmobility co2emission ETV
vector 192 Thesis.node[38].veinsmobility speed ETV
vector 193 Thesis.node[39].veinsmobility posx ETV
vector 194 Thesis.node[39].veinsmobility posy ETV
vector 195 Thesis.node[38].veinsmobility acceleration ETV
vector 196 Thesis.node[38].veinsmobility co2emission ETV
vector 197 Thesis.node[39].veinsmobility speed ETV
vector 198 Thesis.node[40].veinsmobility posx ETV
vector 199 Thesis.node[40].veinsmobility posy ETV
vector 200 Thesis.node[39].veinsmobility acceleration ETV
vector 201 Thesis.node[39].veinsmobility co2emission ETV
vector 202 Thesis.node[40].veinsmobility speed ETV
vector 203 Thesis.node[40].veinsmobility acceleration ETV
vector 204 Thesis.node[40].veinsmobility co2emission ETV
vector 205 Thesis.node[41].veinsmobility posx ETV
vector 206 Thesis.node[41].veinsmobility posy ETV
vector 207 Thesis.node[41].veinsmobility speed ETV
vector 208 Thesis.node[42].veinsmobility posx ETV
vector 209 Thesis.node[42].veinsmobility posy ETV
vector 210 Thesis.node[41].veinsmobility acceleration ETV
vector 211 Thesis.node[41].veinsmobility co2emission ETV
vector 212 Thesis.node[42].veinsmobility speed ETV
vector 213 Thesis.node[43].veinsmobility posx ETV
vector 214 Thesis.node[43].veinsmobility posy ETV
vector 215 Thesis.node[42].veinsmobility acceleration ETV
vector 216 Thesis.node[42].veinsmobility co2emission ETV
20	20501 2496 6 33887 5 101 97 0.973 8.5292612411604 268.58968773095 1228.9318155065
19	22997 2861 6 33887 5 101 97 -4.4836033242932 2.1149271267443 -0.96855501440499 245.88968533477
12	25858 2737 5 33887 4 101 98 2.7920323958171 14.556712390777 825.56078698809 8372.2012659952
6	28595 2661 4 33887 3 101 99 1361.1567647157 1630.1220557098 145270.79138278 213831177.95781
5	31256 2656 4 33887 3 101 99 2992.2477091842 3283.6550586324 309810.38796622 970348240.27835
vector 217 Thesis.node[43].veinsmobility speed ETV
vector 218 Thesis.node[43].veinsmobility acceleration ETV
vector 219 Thesis.node[43].veinsmobility co2emission ETV
146	34081 1111 31677 33889 67 103 37 1.6842630994105 17.435253521573 166.37260266441 1381.9212599872
145	35192 1177 31677 33889 67 103 37 -0.081049379385076 2.1816319866339 23.197718827718 43.70151042855
142	36369 1142 31676 33889 66 103 38 2.8097121510317 26.033890477306 534.4122660186 8476.3917643316
139	37511 1172 31675 33889 65 103 39 1329.5912650538 1818.9527366384 63065.205935738 102809943.41891
138	38683 1170 31675 33889 65 103 39 2704.3623985886 2739.3476566956 106181.48976247 289094995.36017
vector 220 Thesis.node[44].veinsmobility posx ETV
vector 221 Thesis.node[44].veinsmobility posy ETV
vector 222 Thesis.node[44].veinsmobility speed ETV
vector 223 Thesis.node[44].veinsmobility acceleration ETV
vector 224 Thesis.node[44].veinsmobility co2emission ETV
vector 225 Thesis.node[45].veinsmobility posx ETV
vector 226 Thesis.node[45].veinsmobility posy ETV
vector 227 Thesis.node[45].veinsmobility speed ETV
vector 228 Thesis.node[46].veinsmobility posx ETV
vector 229 Thesis.node[46].veinsmobility posy ETV
vector 230 Thesis.node[45].veinsmobility acceleration ETV
vector 231 Thesis.node[45].veinsmobility co2emission ETV
vector 232 Thesis.node[46].veinsmobility speed ETV
vector 233 Thesis.node[47].veinsmobility posx ETV
vector 234 Thesis.node[47].veinsmobility posy ETV
vector 235 Thesis.node[46].veinsmobility acceleration ETV
vector 236 Thesis.node[46].veinsmobility co2emission ETV
vector 237 Thesis.node[47].veinsmobility speed ETV
vector 238 Thesis.node[48].veinsmobility posx ETV
vector 239 Thesis.node[48].veinsmobility posy ETV
vector 240 Thesis.node[47].veinsmobility acceleration ETV
vector 241 Thesis.node[47].veinsmobility co2emission ETV
vector 242 Thesis.node[48].veinsmobility speed ETV
vector 243 Thesis.node[49].veinsmobility posx ETV
vector 244 Thesis.node[49].veinsmobility posy ETV
vector 245 Thesis.node[48].veinsmobility acceleration ETV
vector 246 Thesis.node[48].veinsmobility co2emission ETV
vector 247 Thesis.node[49].veinsmobility speed ETV
vector 248 Thesis.node[50].veinsmobility posx ETV
vector 249 Thesis.node[50].veinsmobility posy ETV
vector 250 Thesis.node[49].veinsmobility acceleration ETV
vector 251 Thesis.node[49].veinsmobility co2emission ETV
vector 252 Thesis.node[50].veinsmobility speed ETV
vector 253 Thesis.node[51].veinsmobility posx ETV
vector 254 Thesis.node[51].veinsmobility posy ETV
vector 255 Thesis.node[50].veinsmobility acceleration ETV
vector 256 Thesis.node[50].veinsmobility co2emission ETV
vector 257 Thesis.node[51].veinsmobility speed ETV
vector 258 Thesis.node[52].veinsmobility posx ETV
vector 259 Thesis.node[52].veinsmobility posy ETV
vector 260 Thesis.node[51].veinsmobility acceleration ETV
vector 261 Thesis.node[51].veinsmobility co2emission ETV
vector 262 Thesis.node[52].veinsmobility speed ETV
vector 263 Thesis.node[53].veinsmobility posx ETV
vector 264 Thesis.node[53].veinsmobility posy ETV
vector 265 Thesis.node[52].veinsmobility acceleration ETV
vector 266 Thesis.node[52].veinsmobility co2emission ETV
vector 267 Thesis.node[53].veinsmobility speed ETV
46	42446 2783 12 33911 11 125 115 0.973 7.5949099825744 261.28167619836 965.16109408264
45	45229 3297 12 33911 11 125 115 -3.0455580676287 2.5677263633837 1.303612056885 241.84487202848
42	48526 3164 11 33911 10 125 116 0 12.265322309309 721.46685162777 6098.1393924457
39	51690 3338 10 33911 9 125 117 884.31870651143 1113.6176973882 114850.85143205 113089718.41445
38	55028 3315 10 33911 9 125 117 2084.6525633048 2552.32 274945.19830612 649202620.84277
vector 268 Thesis.node[54].veinsmobility posx ETV
vector 269 Thesis.node[54].veinsmobility posy ETV
vector 270 Thesis.node[53].veinsmobility acceleration ETV
vector 271 Thesis.node[53].veinsmobility co2emission ETV
31	58562 3194 8 33912 7 126 120 0.973 7.1999706357605 252.98393952952 840.63250524661
30	61756 3638 8 33912 7 126 120 -4.3705263962699 2.5777688725968 -2.3674736657678 196.3781829448
26	65394 3444 7 33912 6 126 121 2.1134941050378 11.061335619183 825.18207839647 6770.2903611116
14	68838 3464 6 33912 5 126 122 1360.4317827661 1629.9054391889 178866.69370377 263033736.62669
13	72302 3457 6 33912 5 126 122 2992.2463636931 3283.9128435481 381796.18638044 1195861768.7907
vector 272 Thesis.node[54].veinsmobility speed ETV
vector 273 Thesis.node[54].veinsmobility acceleration ETV
vector 274 Thesis.node[54].veinsmobility co2emission ETV
vector 275 Thesis.node[55].veinsmobility posx ETV
vector 276 Thesis.node[55].veinsmobility posy ETV
vector 277 Thesis.node[55].veinsmobility speed ETV
vector 278 Thesis.node[56].veinsmobility posx ETV
vector 279 Thesis.node[56].veinsmobility posy ETV
vector 280 Thesis.node[55].veinsmobility acceleration ETV
vector 281 Thesis.node[55].veinsmobility co2emission ETV
41	76301 3177 10 33918 9 132 124 0.973 11.837924811011 370.81428652283 1898.871499955
40	79478 3667 10 33918 9 132 124 -4.5 2.4892129306216 5.9363887293056 326.79433728301
37	83145 3562 9 33918 8 132 125 0 20.128553509623 1123.3564171641 12283.38418664
29	86707 3599 8 33918 7 132 126 743.64697196512 1074.9122800773 112196.96365988 101474641.73444
28	90306 3591 8 33918 7 132 126 2256.9803607286 2721.2894399269 319436.33402346 813145290.39384
vector 282 Thesis.node[56].veinsmobility speed ETV
vector 283 Thesis.node[57].veinsmobility posx ETV
vector 284 Thesis.node[57].veinsmobility posy ETV
vector 285 Thesis.node[56].veinsmobility acceleration ETV
vector 286 Thesis.node[56].veinsmobility co2emission ETV
vector 287 Thesis.node[57].veinsmobility speed ETV
74	94220 2701 2001 33922 25 135 111 0.973 10.33381482468 301.96042585695 1487.3136527137
73	96921 3074 2001 33922 25 135 111 -4.5 2.4607519026217 2.5215603088221 280.40175143538
72	99995 2996 2000 33922 24 135 112 0 16.506884282042 880.36330467303 9818.7310565324
69	102991 3264 1999 33922 23 135 113 918.76235592319 1393.8682262641 120123.8376835 130247585.3613
68	106255 3266 1999 33922 23 135 113 2957.0562632193 3202.3859081875 347627.05716353 1070333428.1008
vector 288 Thesis.node[57].veinsmobility acceleration ETV
vector 289 Thesis.node[57].veinsmobility co2emission ETV
vector 290 Thesis.node[58].veinsmobility posx ETV
vector 291 Thesis.node[58].veinsmobility posy ETV
vector 292 Thesis.node[59].veinsmobility posx ETV
vector 293 Thesis.node[59].veinsmobility posy ETV
vector 294 Thesis.node[58].veinsmobility speed ETV
vector 295 Thesis.node[58].veinsmobility acceleration ETV
vector 296 Thesis.node[58].veinsmobility co2emission ETV
vector 297 Thesis.node[59].veinsmobility speed ETV
vector 298 Thesis.node[60].veinsmobility posx ETV
vector 299 Thesis.node[60].veinsmobility posy ETV
vector 300 Thesis.node[59].veinsmobility acceleration ETV
vector 301 Thesis.node[59].veinsmobility co2emission ETV
vector 302 Thesis.node[60].veinsmobility speed ETV
vector 303 Thesis.node[60].veinsmobility acceleration ETV
vector 304 Thesis.node[60].veinsmobility co2emission ETV
106	110451 2538 2027 108690 51 143 93 0.973 9.3506065092309 272.27793226386 1255.239316544
105	112989 2785 2027 108690 51 143 93 -4.5 2.4918098194385 8.1625524780418 254.67695743522
102	115774 2726 2026 108690 50 143 94 0 14.683198261043 894.26221096586 11086.253273298
101	118500 2870 2025 108690 49 143 95 1228.5410689883 1672.9869345327 146043.2762758 226743534.27839
100	121370 2875 2025 108690 49 143 95 2688.3768971329 3061.4595419461 264218.89569569 735960119.44567
vector 305 Thesis.node[61].veinsmobility posx ETV
vector 306 Thesis.node[61].veinsmobility posy ETV
vector 307 Thesis.node[61].veinsmobility speed ETV
vector 308 Thesis.node[62].veinsmobility posx ETV
vector 309 Thesis.node[62].veinsmobility posy ETV
vector 310 Thesis.node[61].veinsmobility acceleration ETV
vector 311 Thesis.node[61].veinsmobility co2emission ETV
vector 312 Thesis.node[62].veinsmobility speed ETV
vector 313 Thesis.node[62].veinsmobility acceleration ETV
vector 314 Thesis.node[62].veinsmobility co2emission ETV
vector 315 Thesis.node[63].veinsmobility posx ETV
vector 316 Thesis.node[63].veinsmobility posy ETV
vector 317 Thesis.node[64].veinsmobility posx ETV
vector 318 Thesis.node[64].veinsmobility posy ETV
vector 319 Thesis.node[63].veinsmobility speed ETV
64	125043 3330 1995 108697 19 150 132 0.973 10.843097386672 436.18874334913 2382.7777053763
63	128373 3857 1995 108697 19 150 132 -4.4910166702854 2.4308347191266 2.2570035928696 467.55247176297
62	132230 3750 964 108697 18 150 133 0 19.783047868301 1209.6634499528 14161.919655679
59	135980 3885 483 108697 17 150 134 1220.2886236836 1657.3316643693 200750.14464683 303219724.54783
58	139865 3896 483 108697 17 150 134 2707.3156559502 3279.2908308638 391168.55968782 1148278518.777
vector 320 Thesis.node[63].veinsmobility acceleration ETV
vector 321 Thesis.node[63].veinsmobility co2emission ETV
vector 322 Thesis.node[64].veinsmobility speed ETV
vector 323 Thesis.node[64].veinsmobility acceleration ETV
vector 324 Thesis.node[64].veinsmobility co2emission ETV
vector 325 Thesis.node[65].veinsmobility posx ETV
vector 326 Thesis.node[65].veinsmobility posy ETV
vector 327 Thesis.node[65].veinsmobility speed ETV
vector 328 Thesis.node[66].veinsmobility posx ETV
vector 329 Thesis.node[66].veinsmobility posy ETV
vector 330 Thesis.node[65].veinsmobility acceleration ETV
vector 331 Thesis.node[65].veinsmobility co2emission ETV
vector 332 Thesis.node[66].veinsmobility speed ETV
vector 333 Thesis.node[67].veinsmobility posx ETV
vector 334 Thesis.node[67].veinsmobility posy ETV
vector 335 Thesis.node[66].veinsmobility acceleration ETV
vector 336 Thesis.node[66].veinsmobility co2emission ETV
vector 337 Thesis.node[67].veinsmobility speed ETV
vector 338 Thesis.node[68].veinsmobility posx ETV
vector 339 Thesis.node[68].veinsmobility posy ETV
vector 340 Thesis.node[67].veinsmobility acceleration ETV
vector 341 Thesis.node[67].veinsmobility co2emission ETV
vector 342 Thesis.node[68].veinsmobility speed ETV
196	145014 1985 31701 108708 91 161 71 0.973 8.2928336899726 193.66564741129 850.41010455589
195	146999 2195 31701 108708 91 161 71 -3.2502952112175 2.5318788964022 11.695858301343 149.76549832335
192	149194 2125 31700 108708 90 161 72 0 14.299444689486 583.4848602202 6462.1774650027
189	151319 2265 31699 108708 89 161 73 919.62080260884 1113.4391883552 72411.544549287 72068146.745623
188	153584 2262 31699 108708 89 161 73 2169.4224246997 2571.0209853014 171961.61488578 406096813.17675
vector 343 Thesis.node[69].veinsmobility posx ETV
vector 344 Thesis.node[69].veinsmobility posy ETV
vector 345 Thesis.node[68].veinsmobility acceleration ETV
vector 346 Thesis.node[68].veinsmobility co2emission ETV
vector 347 Thesis.node[69].veinsmobility speed ETV
vector 348 Thesis.node[69].veinsmobility acceleration ETV
vector 349 Thesis.node[69].veinsmobility co2emission ETV
vector 350 Thesis.node[70].veinsmobility posx ETV
vector 351 Thesis.node[70].veinsmobility posy ETV
vector 352 Thesis.node[70].veinsmobility speed ETV
176	156388 2386 31693 108714 83 167 85 0.973 10.880900810422 331.24905015571 2055.0413985896
175	158774 2715 31693 108714 83 167 85 -4.4828466638015 2.3606012296863 7.5782881554592 352.32594980884
172	161489 2666 31692 108714 82 167 86 2.5533851011719 18.799394710121 885.67213307418 10433.639739724
169	164155 2696 31691 108714 81 167 87 743.62111388917 903.34868201704 71789.20320733 59492535.664277
168	166851 2687 31691 108714 81 167 87 1888.3554779856 2553.6359520496 192050.69744102 427182996.491
vector 353 Thesis.node[71].veinsmobility posx ETV
vector 354 Thesis.node[71].veinsmobility posy ETV
vector 355 Thesis.node[70].veinsmobility acceleration ETV
vector 356 Thesis.node[70].veinsmobility co2emission ETV
vector 357 Thesis.node[71].veinsmobility speed ETV
vector 358 Thesis.node[72].veinsmobility posx ETV
vector 359 Thesis.node[72].veinsmobility posy ETV
vector 360 Thesis.node[71].veinsmobility acceleration ETV
vector 361 Thesis.node[71].veinsmobility co2emission ETV
vector 362 Thesis.node[72].veinsmobility speed ETV
vector 363 Thesis.node[73].veinsmobility posx ETV
vector 364 Thesis.node[73].veinsmobility posy ETV
vector 365 Thesis.node[72].veinsmobility acceleration ETV
vector 366 Thesis.node[72].veinsmobility co2emission ETV
vector 367 Thesis.node[73].veinsmobility speed ETV
vector 368 Thesis.node[74].veinsmobility posx ETV
vector 369 Thesis.node[74].veinsmobility posy ETV
vector 370 Thesis.node[73].veinsmobility acceleration ETV
vector 371 Thesis.node[73].veinsmobility co2emission ETV
186	170570 2484 31697 108721 87 174 88 0.973 7.2537250219168 188.58611933404 604.1178184173
185	173054 2854 31697 108721 87 174 88 -3.1434158720927 2.1759250489268 3.799329974919 142.24989145713
182	175908 2732 31696 108721 86 174 89 0 11.702314377772 635.11452795105 5539.9390663083
179	178640 2798 31695 108721 85 174 90 927.56920500979 1105.7262211098 91429.206937401 93216979.327086
178	181438 2799 31695 108721 85 174 90 2549.7412972548 2840.506772869 237561.56143936 627818533.29067
vector 372 Thesis.node[74].veinsmobility speed ETV
vector 373 Thesis.node[75].veinsmobility posx ETV
vector 374 Thesis.node[75].veinsmobility posy ETV
vector 375 Thesis.node[74].veinsmobility acceleration ETV
vector 376 Thesis.node[74].veinsmobility co2emission ETV
vector 377 Thesis.node[75].veinsmobility speed ETV
216	184560 2208 33887 109366 101 177 77 0.973 11.892056184477 251.41878287382 1429.9588515685
215	186768 2512 33887 109366 101 177 77 -3.67151677887 2.53191190721 10.624325747191 217.0112861967
212	189280 2442 33886 109366 100 177 78 0 19.978635574667 753.50618265359 9007.3130706549
209	191722 2480 33885 109366 99 177 79 702.42659016393 837.18783785133 62939.408569324 50249229.429042
208	194202 2474 33885 109366 99 177 79 2377.9988050036 2946.2007423173 214306.4644043 584392883.03256
vector 378 Thesis.node[76].veinsmobility posx ETV
vector 379 Thesis.node[76].veinsmobility posy ETV
vector 380 Thesis.node[75].veinsmobility acceleration ETV
vector 381 Thesis.node[75].veinsmobility co2emission ETV
vector 382 Thesis.node[76].veinsmobility speed ETV
51	196947 4259 14 111072 13 179 167 0.973 9.8209691110417 537.72023363807 2922.8158706917
50	201206 4930 14 111072 13 179 167 -3.4474686720174 2.5778155513364 10.561351030651 540.10599522637
47	206136 4757 13 111072 12 179 168 0 16.049310768391 1460.6178003162 16519.617675205
44	210893 4936 12 111072 11 179 169 963.99212339101 1439.19 188589.3253648 213560141.6082
43	215829 4934 12 111072 11 179 169 2175.6620712662 2881.5237927181 428339.21024352 1096028504.5475
vector 383 Thesis.node[77].veinsmobility posx ETV
vector 384 Thesis.node[77].veinsmobility posy ETV
vector 385 Thesis.node[76].veinsmobility acceleration ETV
vector 386 Thesis.node[76].veinsmobility co2emission ETV
vector 387 Thesis.node[77].veinsmobility speed ETV
vector 388 Thesis.node[78].veinsmobility posx ETV
vector 389 Thesis.node[78].veinsmobility posy ETV
vector 390 Thesis.node[77].veinsmobility acceleration ETV
vector 391 Thesis.node[77].veinsmobility co2emission ETV
vector 392 Thesis.node[78].veinsmobility speed ETV
vector 393 Thesis.node[79].veinsmobility posx ETV
vector 394 Thesis.node[79].veinsmobility posy ETV
vector 395 Thesis.node[78].veinsmobility acceleration ETV
vector 396 Thesis.node[78].veinsmobility co2emission ETV
171	221524 2918 31691 111077 81 184 104 0.973 9.9715346541899 354.75390367484 1959.8748479297
170	224442 3341 31691 111077 81 184 104 -4.5 2.5337062587822 11.368583881004 351.3087164782
167	227783 3270 31690 111077 80 184 105 2.1135284113432 18.149131614294 1000.4073592851 10814.74165633
166	231053 3298 31689 111077 79 184 106 823.15419637958 1439.1770839721 115320.34585593 129433836.00317
165	234351 3298 31689 111077 79 184 106 2572.8967313727 2879.9603010782 290976.45710414 799756924.52265
vector 397 Thesis.node[79].veinsmobility speed ETV
vector 398 Thesis.node[80].veinsmobility posx ETV
vector 399 Thesis.node[80].veinsmobility posy ETV
vector 400 Thesis.node[79].veinsmobility acceleration ETV
vector 401 Thesis.node[79].veinsmobility co2emission ETV
vector 402 Thesis.node[80].veinsmobility speed ETV
vector 403 Thesis.node[81].veinsmobility posx ETV
vector 404 Thesis.node[81].veinsmobility posy ETV
vector 405 Thesis.node[80].veinsmobility acceleration ETV
vector 406 Thesis.node[80].veinsmobility co2emission ETV
vector 407 Thesis.node[81].veinsmobility speed ETV
vector 408 Thesis.node[82].veinsmobility posx ETV
vector 409 Thesis.node[82].veinsmobility posy ETV
vector 410 Thesis.node[81].veinsmobility acceleration ETV
vector 411 Thesis.node[81].veinsmobility co2emission ETV
vector 412 Thesis.node[82].veinsmobility speed ETV
vector 413 Thesis.node[83].veinsmobility posx ETV
vector 414 Thesis.node[83].veinsmobility posy ETV
vector 415 Thesis.node[82].veinsmobility acceleration ETV
vector 416 Thesis.node[82].veinsmobility co2emission ETV
vector 417 Thesis.node[83].veinsmobility speed ETV
vector 418 Thesis.node[83].veinsmobility acceleration ETV
vector 419 Thesis.node[83].veinsmobility co2emission ETV
vector 420 Thesis.node[84].veinsmobility posx ETV
vector 421 Thesis.node[84].veinsmobility posy ETV
vector 422 Thesis.node[84].veinsmobility speed ETV
61	239056 4727 483 111090 17 197 181 0.973 8.3790103456229 366.33545170465 1176.2233475477
60	243783 5317 483 111090 17 197 181 -3.0784457221496 2.5559779286973 2.614393991209 269.98109271362
57	249100 5036 158 111090 16 197 182 0 13.986373998727 1196.0496228081 10390.143092887
54	254136 5387 17 111090 15 197 183 918.73529368333 1649.5481509641 229897.97163085 303448176.71762
53	259523 5398 17 111090 15 197 183 2985.4726535193 3216.8875329122 572698.64889914 1792956159.0422
154	264921 3489 31681 111090 71 197 127 0.973 15.074776636209 342.94719863063 2105.9428465516
153	268410 3781 31681 111090 71 197 127 -4.5 2.6 5.1364716413141 273.9038588504
152	272191 3657 31680 111090 70 197 128 0 24.062500947901 952.06497568728 11224.014130791
149	275848 4006 31679 111090 69 197 129 954.59221030458 1420.8118332397 143877.19499252 162452308.02019
148	279854 4007 31679 111090 69 197 129 1831.8674281886 2415.0974327792 261810.15744816 535287730.87646
vector 423 Thesis.node[85].veinsmobility posx ETV
vector 424 Thesis.node[85].veinsmobility posy ETV
vector 425 Thesis.node[84].veinsmobility acceleration ETV
vector 426 Thesis.node[84].veinsmobility co2emission ETV
vector 427 Thesis.node[85].veinsmobility speed ETV
vector 428 Thesis.node[85].veinsmobility acceleration ETV
vector 429 Thesis.node[85].veinsmobility co2emission ETV
vector 430 Thesis.node[86].veinsmobility posx ETV
vector 431 Thesis.node[86].veinsmobility posy ETV
vector 432 Thesis.node[86].veinsmobility speed ETV
vector 433 Thesis.node[87].veinsmobility posx ETV
vector 434 Thesis.node[87].veinsmobility posy ETV
vector 435 Thesis.node[86].veinsmobility acceleration ETV
vector 436 Thesis.node[86].veinsmobility co2emission ETV
vector 437 Thesis.node[87].veinsmobility speed ETV
vector 438 Thesis.node[87].veinsmobility acceleration ETV
vector 439 Thesis.node[87].veinsmobility co2emission ETV
84	284791 4551 2011 111099 35 206 172 0.973 9.8651167485648 480.58810493522 2168.0393189425
83	289342 5186 2011 111099 35 206 172 -4.4027759394352 2.2901893074554 9.3694027372838 441.90603630077
82	294528 4955 2010 111099 34 206 173 0 16.919508905954 1513.6940139547 16849.154947457
81	299483 5177 2009 111099 33 206 174 964.39490754027 1672.9832367558 253606.97413318 380687540.93855
80	304660 5168 2009 111099 33 206 174 2582.776297589 3061.4558362977 487075.01976253 1366102347.0609
vector 440 Thesis.node[88].veinsmobility posx ETV
vector 441 Thesis.node[88].veinsmobility posy ETV
121	309930 4171 2409 111100 57 207 151 0.973 9.7241545952496 388.91946737464 1688.276292349
120	314101 4684 2409 111100 57 207 151 -4.4291163765398 2.4070379246886 9.8687391193611 320.83314304147
117	318785 4498 2173 111100 56 207 152 0 16.958168634095 1193.6623637578 12416.8927848
114	323283 4711 2032 111100 55 207 153 819.59955838935 1424.3943900971 172963.00113024 204405758.80901
113	327994 4717 2032 111100 55 207 153 2517.2842317703 2834.2434925182 410927.37858744 1104749061.1648
vector 442 Thesis.node[88].veinsmobility speed ETV
vector 443 Thesis.node[89].veinsmobility posx ETV
vector 444 Thesis.node[89].veinsmobility posy ETV
vector 445 Thesis.node[88].veinsmobility acceleration ETV
vector 446 Thesis.node[88].veinsmobility co2emission ETV
vector 447 Thesis.node[89].veinsmobility speed ETV
vector 448 Thesis.node[90].veinsmobility posx ETV
vector 449 Thesis.node[90].veinsmobility posy ETV
vector 450 Thesis.node[89].veinsmobility acceleration ETV
vector 451 Thesis.node[89].veinsmobility co2emission ETV
vector 452 Thesis.node[90].veinsmobility speed ETV
vector 453 Thesis.node[91].veinsmobility posx ETV
vector 454 Thesis.node[91].veinsmobility posy ETV
vector 455 Thesis.node[90].veinsmobility acceleration ETV
vector 456 Thesis.node[90].veinsmobility co2emission ETV
vector 457 Thesis.node[91].veinsmobility speed ETV
vector 458 Thesis.node[92].veinsmobility posx ETV
vector 459 Thesis.node[92].veinsmobility posy ETV
vector 460 Thesis.node[91].veinsmobility acceleration ETV
vector 461 Thesis.node[91].veinsmobility co2emission ETV
vector 462 Thesis.node[92].veinsmobility speed ETV
vector 463 Thesis.node[93].veinsmobility posx ETV
vector 464 Thesis.node[93].veinsmobility posy ETV
vector 465 Thesis.node[92].veinsmobility acceleration ETV
vector 466 Thesis.node[92].veinsmobility co2emission ETV
vector 467 Thesis.node[93].veinsmobility speed ETV
vector 468 Thesis.node[94].veinsmobility posx ETV
vector 469 Thesis.node[94].veinsmobility posy ETV
vector 470 Thesis.node[93].veinsmobility acceleration ETV
vector 471 Thesis.node[93].veinsmobility co2emission ETV
111	334337 4440 2029 112067 53 219 167 0.973 11.373366763567 346.64858257993 1281.0800597822
110	338777 4750 2029 112067 53 219 167 -4.5 2.3462616330284 2.3314132845967 275.26455492338
107	343527 4610 2028 112067 52 219 168 0 18.172348327473 994.4613474925 9343.6118978139
104	348137 5244 2027 112067 51 219 169 822.84773842302 1056.5431850751 155547.38149587 143889255.07491
103	353381 5246 2027 112067 51 219 169 2153.814073531 2941.4351595862 453438.34522228 1226967536.536
vector 472 Thesis.node[94].veinsmobility speed ETV
vector 473 Thesis.node[95].veinsmobility posx ETV
vector 474 Thesis.node[95].veinsmobility posy ETV
vector 475 Thesis.node[94].veinsmobility acceleration ETV
vector 476 Thesis.node[94].veinsmobility co2emission ETV
151	358898 4275 31679 112069 69 221 153 0.973 9.6765772133819 358.10899570079 1374.3848991201
150	363173 4690 31679 112069 69 221 153 -3.3614059445163 2.5163532044087 12.1262775378 268.61362376675
147	367863 4487 31678 112069 68 221 154 0 15.070804111276 1113.572903448 11083.70304464
144	372350 4841 31677 112069 67 221 155 747.79595654634 1448.8429374051 152876.12332293 158057761.52626
143	377191 4847 31677 112069 67 221 155 2164.3774365223 2368.5683962244 354111.21717553 809863831.93764
vector 477 Thesis.node[95].veinsmobility speed ETV
vector 478 Thesis.node[96].veinsmobility posx ETV
vector 479 Thesis.node[96].veinsmobility posy ETV
vector 480 Thesis.node[95].veinsmobility acceleration ETV
vector 481 Thesis.node[95].veinsmobility co2emission ETV
vector 482 Thesis.node[96].veinsmobility speed ETV
164	382361 4220 31687 112072 77 224 148 0.973 11.849456036581 465.31475441331 2432.9266791021
163	386581 4804 31687 112072 77 224 148 -4.4618540619127 2.5190543133998 11.568684572905 425.70211247732
162	391385 4633 31686 112072 76 224 149 0 20.128475269518 1479.6215918848 18016.681327084
159	396018 4696 31685 112072 75 224 150 905.57950057829 1644.737832445 180641.88379284 228899335.15133
158	400714 4692 31685 112072 75 224 150 2170.2937633838 2765.5565007983 388849.27089049 1013619295.7403
vector 483 Thesis.node[97].veinsmobility posx ETV
vector 484 Thesis.node[97].veinsmobility posy ETV
vector 485 Thesis.node[96].veinsmobility acceleration ETV
vector 486 Thesis.node[96].veinsmobility co2emission ETV
vector 487 Thesis.node[97].veinsmobility speed ETV
vector 488 Thesis.node[98].veinsmobility posx ETV
vector 489 Thesis.node[98].veinsmobility posy ETV
vector 490 Thesis.node[97].veinsmobility acceleration ETV
vector 491 Thesis.node[97].veinsmobility co2emission ETV
vector 492 Thesis.node[98].veinsmobility speed ETV
vector 493 Thesis.node[99].veinsmobility posx ETV
vector 494 Thesis.node[99].veinsmobility posy ETV
vector 495 Thesis.node[98].veinsmobility acceleration ETV
vector 496 Thesis.node[98].veinsmobility co2emission ETV
99	406167 4763 2023 112077 47 229 183 0.973 10.049420975484 489.28846866533 2268.6215110905
98	410930 5359 2023 112077 47 229 183 -4.5 2.4256611652148 11.121189073823 458.78574790198
97	416289 5156 2022 112077 46 229 184 0 16.263037646314 1381.8697839352 15236.122817122
96	421445 5546 2021 112077 45 229 185 1081.8746031387 1737.7893829891 259928.51695919 372242269.55623
95	426991 5549 2021 112077 45 229 185 1966.2128999956 2426.989840085 398196.1773034 860348089.48782
vector 497 Thesis.node[99].veinsmobility speed ETV
vector 498 Thesis.node[100].veinsmobility posx ETV
vector 499 Thesis.node[100].veinsmobility posy ETV
vector 500 Thesis.node[99].veinsmobility acceleration ETV
vector 501 Thesis.node[99].veinsmobility co2emission ETV
vector 502 Thesis.node[100].veinsmobility speed ETV
vector 503 Thesis.node[101].veinsmobility posx ETV
vector 504 Thesis.node[101].veinsmobility posy ETV
vector 505 Thesis.node[100].veinsmobility acceleration ETV
vector 506 Thesis.node[100].veinsmobility co2emission ETV
301	433089 2687 87341 112081 140 233 94 0.973 9.0823886488125 283.23885286929 1410.3750588884
300	435776 2978 87341 112081 140 233 94 -4.4411660009937 2.6 11.738122427572 249.64866555374
297	438754 2922 85192 112081 139 233 95 0 15.184599748866 856.14942565213 10655.297299709
293	441676 3060 43321 112081 138 233 96 934.52415756544 1211.4237199784 97268.269992048 99359333.564208
292	444736 3060 43321 112081 138 233 96 2266.1411591439 2758.6732543819 249311.33554877 650193856.03259
vector 507 Thesis.node[101].veinsmobility speed ETV
vector 508 Thesis.node[101].veinsmobility acceleration ETV
vector 509 Thesis.node[101].veinsmobility co2emission ETV
18	447968 5661 6 112083 5 235 231 0.973 9.7228968528153 513.81480995549 2016.4516992242
17	453629 6292 6 112083 5 235 231 -4.4649057562416 2.5306494620885 10.838020926408 400.06831929014
11	459921 6053 5 112083 4 235 232 0 15.63557043041 1403.2388663426 14745.632562448
4	465974 6625 4 112083 3 235 233 1204.87610654 1619.9660907902 351051.88066792 531769551.97523
3	472599 6634 4 112083 3 235 233 2064.5036792416 2878.1415684067 573951.00137858 1427133916.887
vector 510 Thesis.node[102].veinsmobility posx ETV
vector 511 Thesis.node[102].veinsmobility posy ETV
419	479337 1285 111087 112085 194 237 44 0.973 9.7691305600205 153.7250338586 828.93195384788
418	480622 1446 111087 112085 194 237 44 -3.2678183252515 2.5799709496484 12.320871141649 146.11220686745
417	482068 1423 111086 112085 193 237 45 1.0308134227984 15.286910679725 409.61173268484 4538.2523620735
414	483491 1467 111085 112085 192 237 46 1487.7144257372 1660.6005433881 73393.651665159 117260417.43225
413	484958 1467 111085 112085 192 237 46 2825.5876090041 3074.9767749036 138574.70659526 417714937.49747
vector 512 Thesis.node[102].veinsmobility speed ETV
vector 513 Thesis.node[103].veinsmobility posx ETV
vector 514 Thesis.node[103].veinsmobility posy ETV
vector 515 Thesis.node[102].veinsmobility acceleration ETV
vector 516 Thesis.node[102].veinsmobility co2emission ETV
vector 517 Thesis.node[103].veinsmobility speed ETV
vector 518 Thesis.node[103].veinsmobility acceleration ETV
vector 519 Thesis.node[103].veinsmobility co2emission ETV
126	486873 5209 4842 112090 59 242 184 0.973 10.251907550727 528.12394918954 2618.3545748362
125	492082 5823 4842 112090 59 242 184 -4.5 2.3981909908235 13.262889564541 476.34308905669
122	497905 5638 2854 112090 58 242 185 0 16.431600307215 1482.0764839562 16183.655576487
119	503543 5799 2409 112090 57 242 186 1272.5136803345 1752.1408876189 270957.79031683 398118949.83129
118	509342 5799 2409 112090 57 242 186 2344.9470994693 2717.8815850286 478659.87653108 1234546833.3914
vector 520 Thesis.node[104].veinsmobility posx ETV
vector 521 Thesis.node[104].veinsmobility posy ETV
vector 522 Thesis.node[104].veinsmobility speed ETV
vector 523 Thesis.node[105].veinsmobility posx ETV
vector 524 Thesis.node[105].veinsmobility posy ETV
vector 525 Thesis.node[104].veinsmobility acceleration ETV
vector 526 Thesis.node[104].veinsmobility co2emission ETV
vector 527 Thesis.node[105].veinsmobility speed ETV
vector 528 Thesis.node[105].veinsmobility acceleration ETV
vector 529 Thesis.node[105].veinsmobility co2emission ETV
vector 530 Thesis.node[106].veinsmobility posx ETV
vector 531 Thesis.node[106].veinsmobility posy ETV
vector 532 Thesis.node[106].veinsmobility speed ETV
vector 533 Thesis.node[107].veinsmobility posx ETV
vector 534 Thesis.node[107].veinsmobility posy ETV
vector 535 Thesis.node[106].veinsmobility acceleration ETV
vector 536 Thesis.node[106].veinsmobility co2emission ETV
vector 537 Thesis.node[107].veinsmobility speed ETV
vector 538 Thesis.node[108].veinsmobility posx ETV
vector 539 Thesis.node[108].veinsmobility posy ETV
vector 540 Thesis.node[107].veinsmobility acceleration ETV
vector 541 Thesis.node[107].veinsmobility co2emission ETV
vector 542 Thesis.node[108].veinsmobility speed ETV
131	516402 5615 31221 113070 61 256 196 0.973 13.350078433828 560.23839975639 2821.9507376643
130	522017 6394 31221 113070 61 256 196 -4.461143437305 2.487206367246 8.6243463204716 473.63664172766
127	528411 6116 9034 113070 60 256 197 0 20.638298159769 1862.4249594127 21018.144309717
124	534527 6192 4842 113070 59 256 198 934.5370804343 1633.1953797492 233915.54888025 284907843.09415
123	540719 6185 4842 113070 59 256 198 1966.145116247 2764.8313040799 483717.47095641 1198337479.5449
vector 543 Thesis.node[109].veinsmobility posx ETV
vector 544 Thesis.node[109].veinsmobility posy ETV
vector 545 Thesis.node[108].veinsmobility acceleration ETV
vector 546 Thesis.node[108].veinsmobility co2emission ETV
324	547127 3188 108699 117351 152 257 106 0.973 6.8932627969579 252.78952344978 874.04890425222
323	550315 3553 108699 117351 152 257 106 -3.0513000116545 2.5264778819354 7.9660446201029 179.5843701179
322	553868 3414 108698 117351 151 257 107 2.9403928545876 11.274080351627 915.53457930433 8584.8471481175
318	557282 3451 108697 117351 150 257 108 929.48938151467 1469.6729083109 121551.55730281 139585508.67491
317	560733 3444 108697 117351 150 257 108 2704.6914690221 2878.0595497752 301356.08502595 841253236.2688
vector 547 Thesis.node[109].veinsmobility speed ETV
vector 548 Thesis.node[109].veinsmobility acceleration ETV
vector 549 Thesis.node[109].veinsmobility co2emission ETV
91	564349 5525 2017 449294 41 260 220 0.973 9.4278816305553 490.82887809203 1970.6807458951
90	569874 5965 2017 449294 41 260 220 -4.0831652413681 2.5740433791539 2.6568387961248 398.8244215357
87	575839 5763 2016 449294 40 260 221 0 16.728187429044 1353.1795189727 13882.740843877
86	581602 6673 2015 449294 39 260 222 918.72829827162 1646.3286061061 302711.67822554 430940679.61245
85	588275 6559 2015 449294 39 260 222 2890.7730287031 3220.8388866058 694238.62285287 2172883495.2541
vector 550 Thesis.node[110].veinsmobility posx ETV
vector 551 Thesis.node[110].veinsmobility posy ETV
vector 552 Thesis.node[110].veinsmobility speed ETV
vector 553 Thesis.node[111].veinsmobility posx ETV
vector 554 Thesis.node[111].veinsmobility posy ETV
vector 555 Thesis.node[110].veinsmobility acceleration ETV
vector 556 Thesis.node[110].veinsmobility co2emission ETV
vector 557 Thesis.node[111].veinsmobility speed ETV
vector 558 Thesis.node[112].veinsmobility posx ETV
vector 559 Thesis.node[112].veinsmobility posy ETV
vector 560 Thesis.node[111].veinsmobility acceleration ETV
vector 561 Thesis.node[111].veinsmobility co2emission ETV
286	595490 3861 33920 449869 134 267 134 0.973 8.3186944169224 349.32123455396 1417.1811575248
285	599351 4394 33920 449869 134 267 134 -4.4335018618525 2.5046963271033 7.5257582511207 295.40241446357
282	603745 4222 33919 449869 133 267 135 0 13.225452626826 1197.9431269227 13184.578272015
279	607967 4323 33918 449869 132 267 136 819.59136658883 996.19890739607 125055.62601631 115452533.48853
278	612290 4319 33918 449869 132 267 136 1888.4976651228 2833.9097231554 324498.45840129 787309514.62249
vector 562 Thesis.node[112].veinsmobility speed ETV
vector 563 Thesis.node[113].veinsmobility posx ETV
vector 564 Thesis.node[113].veinsmobility posy ETV
vector 565 Thesis.node[112].veinsmobility acceleration ETV
vector 566 Thesis.node[112].veinsmobility co2emission ETV
vector 567 Thesis.node[113].veinsmobility speed ETV
vector 568 Thesis.node[114].veinsmobility posx ETV
vector 569 Thesis.node[114].veinsmobility posy ETV
vector 570 Thesis.node[113].veinsmobility acceleration ETV
vector 571 Thesis.node[113].veinsmobility co2emission ETV
vector 572 Thesis.node[114].veinsmobility speed ETV
vector 573 Thesis.node[114].veinsmobility acceleration ETV
vector 574 Thesis.node[114].veinsmobility co2emission ETV
vector 575 Thesis.node[115].veinsmobility posx ETV
vector 576 Thesis.node[115].veinsmobility posy ETV
vector 577 Thesis.node[115].veinsmobility speed ETV
vector 578 Thesis.node[116].veinsmobility posx ETV
vector 579 Thesis.node[116].veinsmobility posy ETV
vector 580 Thesis.node[117].veinsmobility posx ETV
vector 581 Thesis.node[117].veinsmobility posy ETV
vector 582 Thesis.node[115].veinsmobility acceleration ETV
vector 583 Thesis.node[115].veinsmobility co2emission ETV
vector 584 Thesis.node[116].veinsmobility speed ETV
vector 585 Thesis.node[117].veinsmobility speed ETV
vector 586 Thesis.node[118].veinsmobility posx ETV
vector 587 Thesis.node[118].veinsmobility posy ETV
vector 588 Thesis.node[116].veinsmobility acceleration ETV
vector 589 Thesis.node[116].veinsmobility co2emission ETV
vector 590 Thesis.node[117].veinsmobility acceleration ETV
vector 591 Thesis.node[117].veinsmobility co2emission ETV
461	618265 1848 111109 449881 215 279 65 0.973 12.43001811454 182.66095517865 1030.7106328462
460	620113 1946 111109 449881 215 279 65 -4.5 2.220854038705 6.412359484148 135.6179354795
457	622059 1924 111107 449881 214 279 66 0 22.198969409722 534.62479895694 6409.0564739733
454	623983 2137 111106 449881 213 279 67 926.95510739857 1097.4131483996 65332.909056411 63816633.75329
453	626120 2140 111106 449881 213 279 67 2115.282533981 2567.2868257757 157897.8436378 373154360.29809
vector 592 Thesis.node[118].veinsmobility speed ETV
vector 593 Thesis.node[119].veinsmobility posx ETV
vector 594 Thesis.node[119].veinsmobility posy ETV
vector 595 Thesis.node[118].veinsmobility acceleration ETV
vector 596 Thesis.node[118].veinsmobility co2emission ETV
211	628536 5202 33885 449883 99 281 183 0.973 11.835080186926 439.70637657508 1894.8103255921
210	633738 5705 33885 449883 99 281 183 -3.663963830818 2.4107844465901 9.8408253367803 341.39711155721
207	639443 5467 32812 449883 98 281 184 0 19.56032111484 1330.8614360939 13519.297536251
206	644910 5862 32283 449883 97 281 185 546.14967058426 894.01428061698 143167.03530801 111915407.73765
205	650772 5806 32283 449883 97 281 185 1989.9562519271 2712.4128408145 460140.34483403 1153857770.0851
vector 597 Thesis.node[119].veinsmobility speed ETV
vector 598 Thesis.node[119].veinsmobility acceleration ETV
vector 599 Thesis.node[119].veinsmobility co2emission ETV
vector 600 Thesis.node[120].veinsmobility posx ETV
vector 601 Thesis.node[120].veinsmobility posy ETV
vector 602 Thesis.node[120].veinsmobility speed ETV
vector 603 Thesis.node[121].veinsmobility posx ETV
vector 604 Thesis.node[121].veinsmobility posy ETV
vector 605 Thesis.node[120].veinsmobility acceleration ETV
vector 606 Thesis.node[120].veinsmobility co2emission ETV
201	657130 5435 31703 449889 93 287 195 0.973 10.984057617483 525.33255465594 2452.4371861128
200	662565 6118 31703 449889 93 287 195 -4.0958700579795 2.4055746094906 2.7471602429889 473.15884382952
197	668683 5879 31702 449889 92 287 196 0 17.953460562833 1617.7114174018 18650.906039925
194	674562 6225 31701 449889 91 287 197 742.80273503714 1641.4746573236 242921.96000972 325189657.67267
193	680787 6200 31701 449889 91 287 197 2513.7732407445 2739.881366845 524742.26318222 1398575610.0706
vector 607 Thesis.node[121].veinsmobility speed ETV
71	687040 6375 1999 449890 23 288 266 0.973 10.954953486134 680.0926677382 3519.3982498203
70	693415 6983 1999 449890 23 288 266 -3.5775881146798 2.5029226099723 13.766854816993 595.09861259784
67	700398 6807 1998 449890 22 288 267 0 18.909957091463 1555.4621043172 18381.94381928
66	707205 8058 1997 449890 21 288 268 763.07772050389 1688.7567062625 396071.65196162 608732635.60145
65	715263 8048 1997 449890 21 288 268 2688.1695779302 3305.9003886771 796287.05578703 2381754254.6725
vector 608 Thesis.node[122].veinsmobility posx ETV
vector 609 Thesis.node[122].veinsmobility posy ETV
vector 610 Thesis.node[121].veinsmobility acceleration ETV
vector 611 Thesis.node[121].veinsmobility co2emission ETV
vector 612 Thesis.node[122].veinsmobility speed ETV
vector 613 Thesis.node[123].veinsmobility posx ETV
vector 614 Thesis.node[123].veinsmobility posy ETV
vector 615 Thesis.node[122].veinsmobility acceleration ETV
vector 616 Thesis.node[122].veinsmobility co2emission ETV
vector 617 Thesis.node[123].veinsmobility speed ETV
vector 618 Thesis.node[123].veinsmobility acceleration ETV
vector 619 Thesis.node[123].veinsmobility co2emission ETV
vector 620 Thesis.node[124].veinsmobility posx ETV
vector 621 Thesis.node[124].veinsmobility posy ETV
vector 622 Thesis.node[124].veinsmobility speed ETV
vector 623 Thesis.node[125].veinsmobility posx ETV
vector 624 Thesis.node[125].veinsmobility posy ETV
vector 625 Thesis.node[124].veinsmobility acceleration ETV
vector 626 Thesis.node[124].veinsmobility co2emission ETV
vector 627 Thesis.node[125].veinsmobility speed ETV
136	724415 6463 31673 451316 63 298 236 0.973 8.9692959013255 624.5630890398 2796.3957051281
135	730878 7258 31673 451316 63 298 236 -3.4247670400958 2.5390968615771 5.454466417768 581.0741009347
132	738136 7004 31672 451316 62 298 237 0 16.214853433263 1766.394186327 18664.658114171
129	745140 7466 31221 451316 61 298 238 1169.3185379762 1761.6427937743 366300.66164167 569611490.33411
128	752606 7467 31221 451316 61 298 238 2517.2803839122 3060.7222404679 659263.82346183 1830886683.1733
vector 628 Thesis.node[126].veinsmobility posx ETV
vector 629 Thesis.node[126].veinsmobility posy ETV
vector 630 Thesis.node[125].veinsmobility acceleration ETV
vector 631 Thesis.node[125].veinsmobility co2emission ETV
481	760296 2230 112071 452757 223 299 77 0.973 7.9532812032804 195.95468753654 762.41184951167
480	762526 2530 112071 452757 223 299 77 -4.4296375048769 2.1962254844201 2.6539662767513 175.04272111005
477	765056 2446 112070 452757 222 299 78 0 12.541836884382 626.5710922766 6171.1558850375
474	767502 2525 112069 452757 221 299 79 932.31725780056 1297.0828040867 86655.414810844 96667837.896226
473	770027 2521 112069 452757 221 299 79 2570.4326746036 2785.7445819725 215926.85292371 590394904.00621
vector 632 Thesis.node[126].veinsmobility speed ETV
vector 633 Thesis.node[127].veinsmobility posx ETV
vector 634 Thesis.node[127].veinsmobility posy ETV
vector 635 Thesis.node[126].veinsmobility acceleration ETV
vector 636 Thesis.node[126].veinsmobility co2emission ETV
vector 637 Thesis.node[127].veinsmobility speed ETV
356	772877 3888 108715 452760 168 302 135 0.973 10.466466540503 305.20856447548 1153.0876001287
355	776765 4304 108715 452760 168 302 135 -4.5 2.5277859327965 3.9327431118095 250.30428915937
352	781069 4137 108714 452760 167 302 136 0 16.519257586134 927.24438986959 8362.6669272298
351	785206 4368 108713 452760 166 302 137 822.76378659855 1237.1118630417 133535.85472763 133065141.24191
350	789574 4366 108713 452760 166 302 137 2570.3453086966 2878.1965147565 368561.02023643 992576816.17362
56	793940 6906 17 452760 15 302 288 0.973 8.0222154157299 506.7531211503 1549.209763534
55	800846 6967 17 452760 15 302 288 -4.4523457204935 2.4724288694537 0.80394732584771 267.72501872265
52	807813 6705 15 452760 14 302 289 0 13.128593293063 1471.8368567971 16950.25588869
49	814518 8695 14 452760 13 302 290 623.4982910006 995.19290102123 264017.62960336 241843395.03956
48	823213 8645 14 452760 13 302 290 1926.1115052376 2964.0465629103 765335.8004279 2063879584.2979
vector 638 Thesis.node[128].veinsmobility posx ETV
vector 639 Thesis.node[128].veinsmobility posy ETV
vector 640 Thesis.node[127].veinsmobility acceleration ETV
vector 641 Thesis.node[127].veinsmobility co2emission ETV
vector 642 Thesis.node[128].veinsmobility speed ETV
281	832134 5025 33918 452762 132 304 173 0.973 17.414117293309 578.60883705374 3584.9270887102
280	837159 5673 33918 452762 132 304 173 -4.5 2.4154483590159 15.325719506061 491.57224689934
277	842832 5473 33917 452762 131 304 174 0 27.917420801151 1732.3735275987 21824.979190913
276	848305 5547 33916 452762 130 304 175 963.90137768058 1672.9698718638 247230.84771852 361369300.32074
275	853852 5534 33916 452762 130 304 175 2549.7577522109 3061.5434523932 485401.02808566 1349895387.403
vector 643 Thesis.node[129].veinsmobility posx ETV
vector 644 Thesis.node[129].veinsmobility posy ETV
vector 645 Thesis.node[128].veinsmobility acceleration ETV
vector 646 Thesis.node[128].veinsmobility co2emission ETV
vector 647 Thesis.node[129].veinsmobility speed ETV
429	859662 2946 111093 452764 200 306 107 0.973 15.013792411302 276.120394702 1506.6176904076
428	862608 3198 111093 452764 200 306 107 -3.70963016747 2.4551241218136 7.7638138940569 172.91984360263
427	865806 3098 111092 452764 199 306 108 0 23.953659821759 880.84001054216 11148.274771112
424	868904 3484 111091 452764 198 306 109 1096.8308823855 1657.5177665026 165425.84666096 254104705.72391
423	872388 3455 111091 452764 198 306 109 2707.2050727032 2983.2578515625 310127.0759276 883441250.17351
vector 648 Thesis.node[129].veinsmobility acceleration ETV
vector 649 Thesis.node[129].veinsmobility co2emission ETV
8	875962 6958 4 452765 3 307 305 0.973 8.8159572041962 608.28615173272 2267.7948882953
7	882920 7238 4 452765 3 307 305 -4.2374424591243 2.3471006730396 11.572074544021 438.87305066364
2	890158 6995 3 452765 2 307 306 0 15.500420758181 1411.1349689195 14968.739395523
1	897153 8849 2 452765 1 307 307 1205.145442287 1619.9616743894 465308.14801961 708132158.84417
0	906002 8839 2 452765 1 307 307 2060.7200768509 2878.022650274 738830.96788985 1794397007.3465
341	914841 4138 108707 452765 160 307 148 0.973 10.492441113023 356.45154093995 1457.0309001169
340	918979 4597 108707 452765 160 307 148 -3.1383334565804 2.4496337799588 8.4178366992567 293.39216742425
337	923576 4426 108706 452765 159 307 149 0 16.51125178654 1030.5219211449 10184.83233382
334	928002 4782 108705 452765 158 307 150 677.43662409274 1424.3863031394 155407.17105194 171694656.77991
333	932784 4787 108705 452765 158 307 150 2517.2965153213 2739.5408500065 403189.0895106 1084138219.7644
vector 650 Thesis.node[130].veinsmobility posx ETV
vector 651 Thesis.node[130].veinsmobility posy ETV
vector 652 Thesis.node[130].veinsmobility speed ETV
191	937728 6358 31699 452767 89 309 221 0.973 12.951814088899 599.99887414888 2895.9126562422
190	944086 7252 31699 452767 89 309 221 -4.4676351170964 2.5446289240033 5.7026018203945 492.68741250407
187	951338 6960 31698 452767 88 309 222 0 22.241454661539 1858.6912780132 21598.148052673
184	958298 7044 31697 452767 87 309 223 934.54527809347 1457.9971429603 255431.00622639 298800201.78644
183	965342 7034 31697 452767 87 309 223 1773.9924559562 2864.0126074204 547440.53559418 1379731722.9782
451	972376 2880 111104 452767 211 309 99 0.973 16.917445899935 335.43291471497 2243.7733973303
450	975256 3260 111104 452767 211 309 99 -4.5 2.2907403704827 8.7868845331364 285.57857006998
447	978516 3178 111103 452767 210 309 100 0 26.493322621162 966.10963291553 11938.848844088
444	981694 3222 111102 452767 209 309 101 1133.0317187244 1657.5645249351 141726.13161405 203044633.73543
443	984916 3226 111102 452767 209 309 101 2626.8944955274 2925.6086226372 276343.27544325 756656000.83843
311	988142 4685 108693 452767 146 309 164 0.973 10.760856579129 461.62283677567 2242.5264349755
310	992827 5364 108693 452767 146 309 164 -4.5 2.5903265285771 5.202897710723 418.60371632821
307	998191 5208 108692 452767 145 309 165 0 16.920988375235 1364.993470995 15256.438960542
306	1003399 5301 108691 452767 144 309 166 1276.0291299188 1672.9788085892 247338.69253154 372188434.84608
305	1008700 5296 108691 452767 144 309 166 2340.9334325999 3060.5793486115 443895.71961621 1194536035.642
vector 653 Thesis.node[131].veinsmobility posx ETV
vector 654 Thesis.node[131].veinsmobility posy ETV
vector 655 Thesis.node[130].veinsmobility acceleration ETV
vector 656 Thesis.node[130].veinsmobility co2emission ETV
116	1014219 7273 2032 452768 55 310 256 0.973 16.935513546411 819.06710708397 4933.9769621144
115	1021492 8212 2032 452768 55 310 256 -4.5 2.5151198728802 6.1399446027426 688.7822928223
112	1029704 7935 2030 452768 54 310 257 0 27.91340575476 2583.4325103416 33784.402872646
109	1037639 8079 2029 452768 53 310 258 934.54207798506 1657.4280215266 320606.64102187 416306746.59364
108	1045718 8077 2029 452768 53 310 258 1776.0127825151 3189.0924648266 657865.03253552 1731568188.0721
439	1053795 2984 111099 452768 206 310 105 0.973 15.764335250388 392.56538730412 2622.3143467658
438	1056779 3408 111099 452768 206 310 105 -4.490998089083 2.4575929020592 8.2220120236942 389.40468679323
437	1060187 3325 111098 452768 205 310 106 0 25.795415643724 1106.0687486988 14715.991594013
434	1063512 3396 111097 452768 204 310 107 950.61601442328 1657.5576795951 141606.57000958 196104071.76796
433	1066908 3392 111097 452768 204 310 107 2707.2008319446 2963.6000047826 299584.17060495 839336742.28646
vector 657 Thesis.node[131].veinsmobility speed ETV
vector 658 Thesis.node[132].veinsmobility posx ETV
vector 659 Thesis.node[132].veinsmobility posy ETV
vector 660 Thesis.node[131].veinsmobility acceleration ETV
vector 661 Thesis.node[131].veinsmobility co2emission ETV
94	1070576 7693 2019 452770 43 312 270 0.973 8.9908591505752 628.36584655075 2541.8030608246
93	1078269 8637 2019 452770 43 312 270 -4.2009889247123 2.5395277273236 10.997129953364 467.97345966446
92	1086906 8194 2018 452770 42 312 271 0.44423408345075 14.413892013591 1793.5017299153 18240.484495818
89	1095100 8212 2017 452770 41 312 272 1236.8126178335 1672.9843228427 394395.69254255 575995224.72155
88	1103312 8200 2017 452770 41 312 272 2344.8965766667 3089.8387387114 766782.20006403 2180570570.7723
vector 662 Thesis.node[132].veinsmobility speed ETV
vector 663 Thesis.node[133].veinsmobility posx ETV
vector 664 Thesis.node[133].veinsmobility posy ETV
vector 665 Thesis.node[132].veinsmobility acceleration ETV
vector 666 Thesis.node[132].veinsmobility co2emission ETV
vector 667 Thesis.node[133].veinsmobility speed ETV
476	1111841 2902 112069 452773 221 315 95 0.973 9.0583664400837 214.58708745043 843.86355143701
475	1114743 3178 112069 452773 221 315 95 -4.5 2.476808196546 5.6322035191814 147.16978475926
472	1117921 3062 112068 452773 220 315 96 3.0036336103132 15.634842791389 642.18712485171 5982.1727016587
469	1120983 3097 112067 452773 219 315 97 1144.522004128 1335.7759213873 121517.23306753 152456717.59347
468	1124080 3093 112067 452773 219 315 97 1965.8625555912 2361.3105847236 213833.8552518 472933334.97755
vector 668 Thesis.node[134].veinsmobility posx ETV
vector 669 Thesis.node[134].veinsmobility posy ETV
vector 670 Thesis.node[133].veinsmobility acceleration ETV
vector 671 Thesis.node[133].veinsmobility co2emission ETV
416	1127396 3782 111085 452774 192 316 125 0.973 9.051570399476 277.53036738749 913.05143635618
415	1131178 4177 111085 452774 192 316 125 -3.7001163530736 2.4672746226541 4.8380553370976 154.71188067893
412	1135355 3964 111084 452774 191 316 126 0 15.261683215861 1143.1413662586 11992.540624274
409	1139319 4056 111083 452774 190 316 127 964.41635906872 1616.0860080344 164751.48221433 221667743.84285
408	1143375 4044 111083 452774 190 316 127 2515.34786742 2740.2470165135 336493.37428362 892241515.6088
486	1147419 2603 112073 452774 225 316 92 0.973 9.4850206889508 285.22192609898 1412.0566850556
485	1150022 2998 112073 452774 225 316 92 -4.5 2.5766303039202 2.8517143103061 300.30877434652
482	1153020 2942 112072 452774 224 316 93 0 14.58917241593 811.21163541717 8769.4185582193
479	1155962 2995 112071 452774 223 316 94 919.5716552607 1435.9697480278 110602.897282 133269883.21717
478	1158957 2996 112071 452774 223 316 94 2567.7572912362 2897.0343979911 259329.70685016 716102558.46291
406	1161953 3689 111081 452774 188 316 129 0.973 7.7182702505129 284.16455380566 998.22577872446
405	1165642 4113 111081 452774 188 316 129 -4.5 2.4226959550031 9.3421480949442 230.00014677774
402	1169755 3976 111080 452774 187 316 130 0 12.68729975942 835.19623229856 6950.4736005103
399	1173731 4178 111079 452774 186 316 131 1490.4360477202 1714.9695607296 206703.54132508 326523582.40523
398	1177909 4177 111079 452774 186 316 131 2230.5681591266 2690.5950751561 315499.12446159 761979134.70571
vector 672 Thesis.node[134].veinsmobility speed ETV
vector 673 Thesis.node[135].veinsmobility posx ETV
vector 674 Thesis.node[135].veinsmobility posy ETV
vector 675 Thesis.node[134].veinsmobility acceleration ETV
vector 676 Thesis.node[134].veinsmobility co2emission ETV
vector 677 Thesis.node[135].veinsmobility speed ETV
161	1182415 6636 31685 452777 75 319 245 0.973 9.6054545879353 551.4369971523 2207.1075862545
160	1189051 7233 31685 452777 75 319 245 -4.5 2.4742067189427 9.1748644109911 461.22782245018
157	1196284 6943 31684 452777 74 319 246 0 14.169552258674 1578.9100827048 16657.069011198
156	1203227 7779 31683 452777 73 319 247 1487.205172477 1672.9844152141 395098.2871447 632846306.27831
155	1211006 7778 31683 452777 73 319 247 1936.1835396455 3060.9669410482 636456.86120536 1668429236.9964
vector 678 Thesis.node[136].veinsmobility posx ETV
vector 679 Thesis.node[136].veinsmobility posy ETV
vector 680 Thesis.node[135].veinsmobility acceleration ETV
vector 681 Thesis.node[135].veinsmobility co2emission ETV
vector 682 Thesis.node[136].veinsmobility speed ETV
vector 683 Thesis.node[137].veinsmobility posx ETV
vector 684 Thesis.node[137].veinsmobility posy ETV
vector 685 Thesis.node[136].veinsmobility acceleration ETV
vector 686 Thesis.node[136].veinsmobility co2emission ETV
vector 687 Thesis.node[137].veinsmobility speed ETV
vector 688 Thesis.node[138].veinsmobility posx ETV
vector 689 Thesis.node[138].veinsmobility posy ETV
vector 690 Thesis.node[137].veinsmobility acceleration ETV
vector 691 Thesis.node[137].veinsmobility co2emission ETV
vector 692 Thesis.node[138].veinsmobility speed ETV
vector 693 Thesis.node[138].veinsmobility acceleration ETV
vector 694 Thesis.node[138].veinsmobility co2emission ETV
331	1219731 4787 108703 452787 156 329 174 0.973 11.798823503277 406.10556960632 1776.4970317766
330	1224518 5317 108703 452787 156 329 174 -4.5 2.6 9.8072938288705 318.28912864983
327	1229835 5130 108702 452787 155 329 175 0 19.785185920594 1144.4780413706 12253.634847281
326	1234965 5612 108701 452787 154 329 176 1132.9764707712 1651.2260974806 262063.36196775 395874599.00577
325	1240577 5614 108701 452787 154 329 176 2428.1924610549 2753.0111109133 467643.06182341 1244212667.2292
vector 695 Thesis.node[139].veinsmobility posx ETV
vector 696 Thesis.node[139].veinsmobility posy ETV
251	1246295 5877 33904 452788 118 330 213 0.973 10.073597957405 664.37066133622 3603.3872280386
250	1252172 6587 33904 452788 118 330 213 -4.1062610893487 2.3629851815465 11.046191851466 638.76227154122
247	1258759 6392 33903 452788 117 330 214 0 16.405687841963 1768.3343259278 21468.073968902
244	1265151 6818 33902 452788 116 330 215 1291.2483183898 1672.9681508361 338082.27167105 532887207.21432
243	1271969 6815 33902 452788 116 330 215 1862.6065048339 3089.8806584229 537533.77279819 1382760092.6966
vector 697 Thesis.node[139].veinsmobility speed ETV
vector 698 Thesis.node[140].veinsmobility posx ETV
vector 699 Thesis.node[140].veinsmobility posy ETV
vector 700 Thesis.node[139].veinsmobility acceleration ETV
vector 701 Thesis.node[139].veinsmobility co2emission ETV
vector 702 Thesis.node[140].veinsmobility speed ETV
vector 703 Thesis.node[141].veinsmobility posx ETV
vector 704 Thesis.node[141].veinsmobility posy ETV
vector 705 Thesis.node[140].veinsmobility acceleration ETV
vector 706 Thesis.node[140].veinsmobility co2emission ETV
vector 707 Thesis.node[141].veinsmobility speed ETV
641	1279389 993 452761 452794 303 335 33 0.973 8.5586442739621 110.31209984691 549.7746098408
640	1280382 1096 452761 452794 303 335 33 -3.2754448474843 2.3429457032052 11.825004438202 71.784227751306
637	1281478 1087 452760 452794 302 335 34 2.2323724519099 14.169612067334 389.48122180812 4920.5317148515
634	1282565 1115 452759 452794 301 335 35 1150.4138372731 1517.055887278 47436.940801392 64742251.005588
633	1283680 1118 452759 452794 301 335 35 3068.1405170995 3089.8279849999 107840.67340492 332277296.87881
vector 708 Thesis.node[142].veinsmobility posx ETV
vector 709 Thesis.node[142].veinsmobility posy ETV
vector 710 Thesis.node[141].veinsmobility acceleration ETV
vector 711 Thesis.node[141].veinsmobility co2emission ETV
vector 712 Thesis.node[142].veinsmobility speed ETV
vector 713 Thesis.node[143].veinsmobility posx ETV
vector 714 Thesis.node[143].veinsmobility posy ETV
vector 715 Thesis.node[142].veinsmobility acceleration ETV
vector 716 Thesis.node[142].veinsmobility co2emission ETV
vector 717 Thesis.node[143].veinsmobility speed ETV
336	1285350 5154 108705 486644 158 339 182 0.973 9.0555706819089 400.67992973562 1472.2540189944
335	1290504 5673 108705 486644 158 339 182 -3.3841497614036 2.4010964266793 7.2992743079317 292.06111859528
332	1296177 5421 108704 486644 157 339 183 0 15.418246819872 1302.3743939997 13318.819174721
329	1301598 5826 108703 486644 156 339 184 1354.4218864492 1657.6349793808 291028.60693536 461439153.10494
328	1307424 5869 108703 486644 156 339 184 2337.257972067 3336.5961106112 510980.72260222 1436071117.3028
381	1313293 4810 109967 486644 178 339 162 0.973 7.7583308897039 379.62844999367 1374.5180142014
380	1318103 5412 109967 486644 178 339 162 -4.5 2.2579108725189 5.4418349011568 258.62631714653
377	1323515 5171 109366 486644 177 339 163 0 12.638012085443 1373.9878669001 13160.674633356
374	1328686 5220 108933 486644 176 339 164 1350.505194488 1672.982180741 259634.13818933 412009623.95651
373	1333906 5232 108933 486644 176 339 164 2513.726336658 3088.964504976 458271.27431005 1287768748.8181
vector 718 Thesis.node[143].veinsmobility acceleration ETV
vector 719 Thesis.node[143].veinsmobility co2emission ETV
vector 720 Thesis.node[144].veinsmobility posx ETV
vector 721 Thesis.node[144].veinsmobility posy ETV
vector 722 Thesis.node[144].veinsmobility speed ETV
vector 723 Thesis.node[144].veinsmobility acceleration ETV
vector 724 Thesis.node[144].veinsmobility co2emission ETV
219	1339533 6707 33889 767137 103 345 243 0.973 7.4288801738962 519.48508478788 1811.4409814259
218	1346240 7274 33889 767137 103 345 243 -4.4174887026707 2.3666309167739 9.1282301682789 404.32966714552
217	1353514 6972 33888 767137 102 345 244 0 11.6740328671 1599.9456349448 15820.506842705
214	1360486 7772 33887 767137 101 345 245 1205.9064489929 1672.9844545964 380759.78168549 596367766.72339
213	1368258 7733 33887 767137 101 345 245 2238.22 3216.4427313791 674981.30094407 1880586684.1678
vector 725 Thesis.node[145].veinsmobility posx ETV
vector 726 Thesis.node[145].veinsmobility posy ETV
vector 727 Thesis.node[145].veinsmobility speed ETV
vector 728 Thesis.node[146].veinsmobility posx ETV
vector 729 Thesis.node[146].veinsmobility posy ETV
vector 730 Thesis.node[145].veinsmobility acceleration ETV
vector 731 Thesis.node[145].veinsmobility co2emission ETV
181	1376371 7093 31695 767140 85 348 264 0.93983017500538 11.475518339387 697.18310523179 3333.636907343
180	1383464 7732 31695 767140 85 348 264 -3.4698615665628 2.587423043882 14.006487622029 595.18661827743
177	1391196 7478 31694 767140 84 348 265 0 18.958838050723 1899.6789068259 22937.63948436
174	1398674 8353 31693 767140 83 348 266 546.17303954867 1714.8776092012 348641.65637058 500691621.06084
173	1407027 8411 31693 767140 83 348 266 2585.0500086605 3228.8517520148 767664.62834287 2229911041.336
vector 732 Thesis.node[146].veinsmobility speed ETV
vector 733 Thesis.node[147].veinsmobility posx ETV
vector 734 Thesis.node[147].veinsmobility posy ETV
vector 735 Thesis.node[146].veinsmobility acceleration ETV
vector 736 Thesis.node[146].veinsmobility co2emission ETV
376	1415714 4584 108933 767142 176 350 175 0.973 8.7935339630973 398.61161113438 1698.1044934461
375	1420298 4838 108933 767142 176 350 175 -3.4289318467411 2.4159709152323 11.661704977243 324.06806482604
372	1425136 4714 108723 767142 175 350 176 0 14.524374630631 996.11056638087 11141.068000972
369	1429850 5652 108721 767142 174 350 177 1122.1744500061 1794.9073080839 269303.48640795 417018753.43553
368	1435502 5631 108721 767142 174 350 177 3064.8548556642 3229.0293604179 559603.13260471 1769918270.2852
vector 737 Thesis.node[147].veinsmobility speed ETV
vector 738 Thesis.node[148].veinsmobility posx ETV
vector 739 Thesis.node[148].veinsmobility posy ETV
vector 740 Thesis.node[147].veinsmobility acceleration ETV
vector 741 Thesis.node[147].veinsmobility co2emission ETV
vector 742 Thesis.node[148].veinsmobility speed ETV
vector 743 Thesis.node[149].veinsmobility posx ETV
vector 744 Thesis.node[149].veinsmobility posy ETV
vector 745 Thesis.node[148].veinsmobility acceleration ETV
vector 746 Thesis.node[148].veinsmobility co2emission ETV
509	1441685 3397 112083 767146 235 354 120 0.973 13.084095774535 433.39839141415 2648.6244022123
508	1445082 3819 112083 767146 235 354 120 -4.5 2.322623271856 13.395140224265 393.32463826246
507	1448901 3753 112082 767146 234 354 121 0 19.850881692509 1208.370253561 15661.528527698
504	1452654 3893 112081 767146 233 354 122 953.42099463095 1657.5632895612 174824.19988274 257496223.15116
503	1456547 3893 112081 767146 233 354 122 2707.3255194859 3072.9166929028 346639.61195331 986792664.39736
vector 747 Thesis.node[149].veinsmobility speed ETV
vector 748 Thesis.node[150].veinsmobility posx ETV
vector 749 Thesis.node[150].veinsmobility posy ETV
vector 750 Thesis.node[149].veinsmobility acceleration ETV
vector 751 Thesis.node[149].veinsmobility co2emission ETV
vector 752 Thesis.node[150].veinsmobility speed ETV
vector 753 Thesis.node[151].veinsmobility posx ETV
vector 754 Thesis.node[151].veinsmobility posy ETV
vector 755 Thesis.node[150].veinsmobility acceleration ETV
vector 756 Thesis.node[150].veinsmobility co2emission ETV
vector 757 Thesis.node[151].veinsmobility speed ETV
vector 758 Thesis.node[152].veinsmobility posx ETV
vector 759 Thesis.node[152].veinsmobility posy ETV
vector 760 Thesis.node[151].veinsmobility acceleration ETV
vector 761 Thesis.node[151].veinsmobility co2emission ETV
vector 762 Thesis.node[152].veinsmobility speed ETV
vector 763 Thesis.node[153].veinsmobility posx ETV
vector 764 Thesis.node[153].veinsmobility posy ETV
vector 765 Thesis.node[152].veinsmobility acceleration ETV
vector 766 Thesis.node[152].veinsmobility co2emission ETV
vector 767 Thesis.node[153].veinsmobility speed ETV
vector 768 Thesis.node[154].veinsmobility posx ETV
vector 769 Thesis.node[154].veinsmobility posy ETV
vector 770 Thesis.node[153].veinsmobility acceleration ETV
vector 771 Thesis.node[153].veinsmobility co2emission ETV
vector 772 Thesis.node[154].veinsmobility speed ETV
vector 773 Thesis.node[155].veinsmobility posx ETV
vector 774 Thesis.node[155].veinsmobility posy ETV
vector 775 Thesis.node[154].veinsmobility acceleration ETV
vector 776 Thesis.node[154].veinsmobility co2emission ETV
236	1462096 7156 33898 767158 112 366 255 0.973 14.133857945329 679.10084411761 3491.4080054122
235	1469252 7916 33898 767158 112 366 255 -4.5 2.5662543012458 8.4442462452154 578.43184613415
232	1477168 7627 33897 767158 111 366 256 0 23.08127301282 1960.2835363589 21796.592599601
229	1484795 8147 33896 767158 110 366 257 743.72328154316 1644.7235258738 304476.23695487 395398844.21104
228	1492942 8159 33896 767158 110 366 257 2256.5065968737 2764.9989001226 669276.4347653 1748581680.8934
vector 777 Thesis.node[155].veinsmobility speed ETV
vector 778 Thesis.node[155].veinsmobility acceleration ETV
vector 779 Thesis.node[155].veinsmobility co2emission ETV
346	1501273 5726 108709 767160 162 368 207 0.973 12.487750235457 668.52790645809 3907.8627624459
345	1506999 6476 108709 767160 162 368 207 -4.4448635482159 2.3572434659605 2.6074469323061 651.83813215938
342	1513475 6291 108708 767160 161 368 208 0 21.157420675729 1834.5422197073 22727.654325539
339	1519766 6671 108707 767160 160 368 209 782.59918635508 1211.0295373385 198173.11762361 190159981.12535
338	1526437 6668 108707 767160 160 368 209 1624.2668544177 2758.5628031597 466489.89590379 1072767122.0564
271	1533105 7094 33912 767161 126 369 244 0.973 11.853920161793 539.32839497933 2241.247736141
270	1540199 7786 33912 767161 126 369 244 -4.320917938755 2.350457718448 9.0203078352847 398.08838820468
267	1547985 7405 33911 767161 125 369 245 0 20.985536386163 1466.3256026299 14053.025674417
264	1555390 7828 33910 767161 124 369 246 816.42613662296 1247.8689559672 255253.54932907 271295687.18803
263	1563218 7833 33910 767161 124 369 246 2115.1925107679 2920.6366596626 591893.59981348 1436847567.3036
526	1571051 3612 112318 767161 247 369 123 0.973 8.1340904822736 328.64771266253 1410.7882692447
525	1574663 4064 112318 767161 247 369 123 -4.0135296947892 2.5221328811883 0.10128624964387 280.58798688097
522	1578727 3900 112317 767161 246 369 124 0 13.354108062602 1158.0679126425 12675.212296714
521	1582627 3992 112094 767161 245 369 125 1228.3193114579 1672.9680610824 189380.72675779 289377279.04212
520	1586619 3977 112094 767161 245 369 125 2688.3708119081 3069.2113242254 354455.2616942 1007704370.606
vector 780 Thesis.node[156].veinsmobility posx ETV
vector 781 Thesis.node[156].veinsmobility posy ETV
314	1590700 6281 108695 767162 148 370 223 0.973 7.8289008666982 485.40783696412 1747.4804534542
313	1596981 6874 108695 767162 148 370 223 -4.5 2.5741242541955 9.6391523069481 371.75065680888
312	1603855 6608 108694 767162 147 370 224 0 13.132365689674 1483.0535103872 13859.389934342
309	1610463 7172 108693 767162 146 370 225 979.16787665692 1761.6950950409 328764.96728633 491335824.47852
308	1617635 7173 108693 767162 146 370 225 2175.2736667358 2871.3820874472 552607.11728331 1367070567.0689
vector 782 Thesis.node[156].veinsmobility speed ETV
606	1624861 2356 449889 767163 287 371 85 0.973 9.7823059139499 287.68025146782 1654.7528577257
605	1627217 2604 449889 767163 287 371 85 -4.4858880858637 2.4249036564515 5.7481531523096 303.11169141846
602	1629821 2568 449888 767163 286 371 86 0 16.390645270038 720.0216815725 8757.0647493698
601	1632389 2774 449887 767163 285 371 87 634.1115742749 1212.6635244178 80491.527482851 77151995.577255
600	1635163 2779 449887 767163 285 371 87 2707.8230706925 2758.7651192088 236967.54053342 645466841.44757
vector 783 Thesis.node[156].veinsmobility acceleration ETV
vector 784 Thesis.node[156].veinsmobility co2emission ETV
vector 785 Thesis.node[157].veinsmobility posx ETV
vector 786 Thesis.node[157].veinsmobility posy ETV
vector 787 Thesis.node[157].veinsmobility speed ETV
vector 788 Thesis.node[157].veinsmobility acceleration ETV
vector 789 Thesis.node[157].veinsmobility co2emission ETV
391	1638337 5227 111075 768388 182 377 196 0.973 8.2205628209822 309.23141248457 738.27947420724
390	1643564 5442 111075 768388 182 377 196 -2.9681862724815 2.3943397109884 4.9935616258688 168.88214174439
387	1649006 5206 111074 768388 181 377 197 0 12.62181600515 797.51570320515 6275.3024072565
384	1654212 6323 111073 768388 180 377 198 1490.4482206516 1658.4873703561 309929.80687429 485516723.01156
383	1660535 6319 111073 768388 180 377 198 2207.3744483705 2705.6344582385 463766.79428032 1090932092.0069
vector 790 Thesis.node[158].veinsmobility posx ETV
vector 791 Thesis.node[158].veinsmobility posy ETV
vector 792 Thesis.node[158].veinsmobility speed ETV
vector 793 Thesis.node[159].veinsmobility posx ETV
vector 794 Thesis.node[159].veinsmobility posy ETV
vector 795 Thesis.node[158].veinsmobility acceleration ETV
vector 796 Thesis.node[158].veinsmobility co2emission ETV
571	1667234 3003 449873 777126 271 380 110 0.973 8.4914387713787 272.54546427488 1151.3466728327
570	1670237 3343 449873 777126 271 380 110 -4.4542699395213 2.4725591302942 6.65283197397 262.66248398889
567	1673580 3233 449872 777126 270 380 111 0 13.98471787532 715.56447312416 7123.2492685211
564	1676813 3575 449871 777126 269 380 112 1342.8726949927 1657.6739176486 174392.74043434 272986645.44083
563	1680388 3563 449871 777126 269 380 112 2803.7820495105 3224.7390306154 337316.09080361 1018019005.1455
vector 797 Thesis.node[159].veinsmobility speed ETV
vector 798 Thesis.node[160].veinsmobility posx ETV
vector 799 Thesis.node[160].veinsmobility posy ETV
[...]
4032	36532718 3281 3581050 3582892 1907 2000 94 1457.4004555142 1644.7177126371 151152.1949202 243205999.44825
4031	36535999 3286 3581050 3582892 1907 2000 94 2356.5306647389 2735.870549426 242488.89265469 627461608.26896
4046	36539285 2220 3581056 3582892 1913 2000 88 0.973 2.4475150624392 88.185450236147 91.652356900746
4045	36541505 1971 3581056 3582892 1913 2000 88 -1.6289899221781 2.2569204124503 -0.64204027042062 10.110275585521
4042	36543476 1971 3581055 3582892 1912 2000 89 0 3.2612908599756 9.3646663158289 19.67889699323
4041	36545447 3149 3581054 3582892 1911 2000 90 1537.8514732989 1546.3929612671 138661.69223274 213634827.12005
4040	36548596 3149 3581054 3582892 1911 2000 90 2217.7656143269 2222.9110195286 199906.60148731 444029716.05269
4051	36551745 2659 3581059 3582892 1915 2000 86 0.973 13.373390137559 267.88153920336 1531.0770092052
4050	36554404 2923 3581059 3582892 1915 2000 86 -4.5 2.4818908746075 11.497797773537 208.30531473289
4047	36557327 2875 3581058 3582892 1914 2000 87 0 21.722973361117 764.14028569336 9257.9737450627
4044	36560202 3072 3581056 3582892 1913 2000 88 963.87987491846 1128.1576165396 90148.297752916 92602170.642641
4043	36563274 3064 3581056 3582892 1913 2000 88 2121.7459620624 2724.9555766054 207872.77871391 495283440.10818
4056	36566338 2624 3581189 3582892 1917 2000 84 0.973 8.3943443831903 189.13413604854 692.25263581872
4055	36568962 2864 3581189 3582892 1917 2000 84 -3.1111013269361 2.352269650158 12.580866184938 130.35196807892
4052	36571826 2756 3581188 3582892 1916 2000 85 0 15.254592048243 552.32060340621 5279.5745485326
4049	36574582 3002 3581059 3582892 1915 2000 86 1337.8507604364 1612.5169510673 130893.2715269 199853566.6735
4048	36577584 2995 3581059 3582892 1915 2000 86 2286.767024305 2604.275484086 208503.49007728 506055669.05105
4061	36580579 2650 3581191 3582892 1919 2000 82 0.973 9.3707592368132 266.00668315957 1347.8338308751
4060	36583229 2960 3581191 3582892 1919 2000 82 -3.4358328867451 2.4929116175999 12.096222413429 227.80467172091
4057	36586189 2883 3581190 3582892 1918 2000 83 0.56132066368255 15.275248740092 817.65876783469 9584.1628466591
4054	36589072 2930 3581189 3582892 1917 2000 84 1122.1612498997 1631.149479848 110790.15056022 149117839.14556
4053	36592002 2927 3581189 3582892 1917 2000 84 3031.8810803275 3322.567859113 263077.26084296 824618861.33376
4064	36594929 2654 3581193 3582892 1921 2000 80 0.973 7.8229690699813 186.87642333178 655.49904409468
4063	36597583 2927 3581193 3582892 1921 2000 80 -3.206301146893 2.4407617328269 0.74876965185194 139.85392473332
4062	36600510 2830 3581192 3582892 1920 2000 81 2.619384687084 13.499789589783 679.24236915384 6271.8620568783
4059	36603340 2861 3581191 3582892 1919 2000 82 979.16520062909 1456.5253986556 100908.26715939 126467291.83609
4058	36606201 2865 3581191 3582892 1919 2000 82 2164.3709122268 2345.9484459573 181464.4052754 401747104.1222
4071	36609066 2325 3581199 3582892 1927 2000 74 0.973 8.9575159635687 220.89934582188 1065.9260506483
4070	36611391 2659 3581199 3582892 1927 2000 74 -3.3474046236361 2.3966584317293 11.64171189366 160.55072171273
4067	36614050 2604 3581198 3582892 1926 2000 75 0 14.638975362323 699.48406361149 7737.6585905564
4066	36616654 2649 3581197 3582892 1925 2000 76 828.51311080541 1005.0542670506 73053.351307417 70383349.526718
4065	36619303 2653 3581197 3582892 1925 2000 76 2230.7285905529 2721.2655271877 183634.35734813 446036916.84122
4076	36621956 2118 3581201 3582892 1929 2000 72 0.973 8.2665064935429 151.18603250489 568.31565732817
4075	36624074 2364 3581201 3582892 1929 2000 72 -3.1504765036915 2.4830036144634 -2.4174460347045 144.4274873272
4072	36626438 2318 3581200 3582892 1928 2000 73 0 12.467108902283 346.59087774681 2868.1937731367
4069	36628756 2571 3581199 3582892 1927 2000 74 1430.9473463537 1649.4593334433 117201.52505234 186091047.27056
4068	36631327 2583 3581199 3582892 1927 2000 74 3064.8632141683 3182.3378721966 230725.80654008 719584767.29907
4081	36633910 2266 3581203 3582892 1931 2000 70 0.973 8.9913007808949 182.80146371403 721.57908773723
4080	36636176 2512 3581203 3582892 1931 2000 70 -4.5 2.4111387650296 3.8762956280743 157.99527270118
4077	36638688 2474 3581202 3582892 1930 2000 71 0.71549080877443 15.357168558931 584.11662889286 5539.8385524154
4074	36641162 2519 3581201 3582892 1929 2000 72 745.12365831049 1246.5650455292 72907.320110235 75378074.980662
4073	36643681 2514 3581201 3582892 1929 2000 72 2115.4739940397 2276.8113363933 157621.9900677 345277226.49943
4091	36646195 1886 3581207 3582892 1935 2000 66 0.973 8.7075179036941 146.81534814653 586.99364459035
4090	36648081 2075 3581207 3582892 1935 2000 66 -3.3095315600639 2.3207314833192 -2.1648214774832 174.25324818889
4087	36650156 2040 3581206 3582892 1934 2000 67 0 13.877382433975 252.46711069559 2037.85416968
4084	36652196 2361 3581205 3582892 1933 2000 68 1555.67381505 1614.2687382763 106283.43841226 166135827.17043
4083	36654557 2377 3581205 3582892 1933 2000 68 2000.3691402349 2195.6614782721 143322.49515121 302399665.68224
4094	36656934 2116 3581209 3582892 1937 2000 64 0.973 6.3179566685784 137.03816133721 416.44801610899
4093	36659050 2325 3581209 3582892 1937 2000 64 -4.0507709702652 2.350006719532 3.3378130180046 111.6117940852
4092	36661375 2265 3581208 3582892 1936 2000 65 2.190866930257 9.4207952423526 459.68415589473 3591.4278854507
4089	36663640 2303 3581207 3582892 1935 2000 66 1061.6918180713 1350.6923986334 81382.786989125 100879493.28693
4088	36665943 2302 3581207 3582892 1935 2000 66 2174.6541842544 2333.6371036148 147192.05315493 328389986.65074
4102	36668245 1814 3581213 3582892 1941 2000 60 0.973 8.6292748098929 147.87211366662 636.66876279362
4101	36670059 2021 3581213 3582892 1941 2000 60 -3.3185795665496 2.406639514491 -2.2558717147423 147.65787218066
4099	36672080 1964 3581212 3582892 1940 2000 61 0 14.11229546406 413.9939520253 4614.2779962096
4096	36674044 2165 3581211 3582892 1939 2000 62 1570.2904828916 1756.230829452 101448.11985796 166167129.11015
4095	36676209 2163 3581211 3582892 1939 2000 62 1890.54605383 2150.799081926 126672.50836782 259554051.58952
4115	36678372 1455 3581218 3582892 1946 2000 55 0.973 5.7304142931156 78.907725110716 195.02508472779
4114	36679827 1482 3581218 3582892 1946 2000 55 -2.7661239715821 2.2980978413774 -4.0555814365942 62.063685950064
4107	36681309 1473 3581217 3582892 1945 2000 56 0 9.915161372517 97.439399167592 658.55323858067
4106	36682782 1984 3581216 3582892 1944 2000 57 1554.7633498887 1607.7698709248 89231.362743058 139698689.26601
4105	36684766 1993 3581216 3582892 1944 2000 57 2150.1405699486 2203.4030828196 124187.46727978 270607393.30501
4126	36686759 1718 3581220 3582892 1948 2000 53 0.973 9.339849457212 204.47958688936 1205.1628978481
4125	36688477 1907 3581220 3582892 1948 2000 53 -4.4172135931542 2.3277214699169 8.5133585761783 175.78518002539
4118	36690384 1886 3581219 3582892 1947 2000 54 3.8864451035257 15.574090505134 644.74581642438 8384.6079563849
4111	36692270 1921 3581218 3582892 1946 2000 55 623.67073251264 956.21573690837 44581.447741184 36681929.435692
4110	36694191 1923 3581218 3582892 1946 2000 55 1925.8793417403 2155.4621558244 111139.61006929 224873406.94649
4131	36696114 1554 3581222 3582892 1950 2000 51 0.973 8.8013582859258 146.24058927152 683.8754469164
4130	36697668 1757 3581222 3582892 1950 2000 51 -4.4958772002743 2.1565688066441 -3.9642254349839 156.71709733661
4127	36699425 1734 3581221 3582892 1949 2000 52 0 14.850424233136 418.17401783993 4691.1448714047
4120	36701159 1849 3581220 3582892 1948 2000 53 1107.1030175553 1328.7905770483 63548.140679058 76598185.849032
4119	36703008 1851 3581220 3582892 1948 2000 53 3086.0810784535 3203.6512210763 166220.37718863 521419389.37193
4136	36704859 1552 3581224 3582892 1952 2000 49 0.973 7.4809337436902 106.77852363419 358.06680423234
4135	36706411 1761 3581224 3582892 1952 2000 49 -2.6830557884702 2.2860566997225 -3.9125711151337 63.291059010066
4132	36708172 1713 3581223 3582892 1951 2000 50 0 14.041331992186 419.73836379516 4517.5275006961
4129	36709885 1776 3581222 3582892 1950 2000 51 1504.1547810554 1657.6612322241 81766.154516243 131232847.10048
4128	36711661 1778 3581222 3582892 1950 2000 51 2815.3670992283 3132.1057252992 152803.9997568 458491420.20928
4141	36713439 1313 3581226 3582892 1954 2000 47 0.973 7.7943304857906 90.39126222898 333.20856534445
4140	36714752 1359 3581226 3582892 1954 2000 47 -3.1631319151357 2.141492154384 -3.9724339575821 79.889401408993
4137	36716111 1359 3581225 3582892 1953 2000 48 0 11.94033003145 191.89163136059 1845.3478460087
4134	36717470 1715 3581224 3582892 1952 2000 49 1534.2531980783 1586.4824527508 76031.212161203 117984417.08257
4133	36719185 1711 3581224 3582892 1952 2000 49 1768.4176756349 1945.1636832684 92929.139010956 176436998.06555
4146	36720896 1454 3581228 3582892 1956 2000 45 0.973 8.224252602636 154.37749248156 797.2038186156
4145	36722350 1620 3581228 3582892 1956 2000 45 -4.488046733907 2.3910122172651 2.6414863360703 169.40559714193
4142	36723970 1606 3581227 3582892 1955 2000 46 3.7833016425273 13.97809814708 457.94552664726 5089.6531892918
4139	36725576 1640 3581226 3582892 1954 2000 47 745.89869123266 894.67657354108 38849.551855098 32239429.600635
4138	36727216 1640 3581226 3582892 1954 2000 47 1980.0842792005 2276.5275215204 100962.84238751 217236499.59522
4149	36728856 1223 3581230 3582892 1958 2000 43 0.973 11.547019757049 137.04952786623 961.67510138807
4148	36730079 1283 3581230 3582892 1958 2000 43 -3.6976270616462 2.1179286818858 -4.0231108670047 130.39351521728
4147	36731362 1286 3581229 3582892 1957 2000 44 0 20.548817858344 284.84786013042 4045.4778024864
4144	36732648 1570 3581228 3582892 1956 2000 45 1027.977664941 1090.4141869782 48278.028555848 51813700.42308
4143	36734218 1558 3581228 3582892 1956 2000 45 1833.8253998043 2107.771376097 91136.508566571 185041265.70168
4161	36735776 1232 3581234 3582892 1962 2000 39 0.973 7.3958497682878 82.902813118151 271.46521161769
4160	36737008 1341 3581234 3582892 1962 2000 39 -4.5 2.4296692444221 -3.9416560723724 66.495203825597
4157	36738349 1316 3581233 3582892 1961 2000 40 0 12.95455635255 339.27333824053 4009.2078673315
4153	36739665 1429 3581232 3582892 1960 2000 41 1297.1356135206 1611.8401484468 60004.485731649 88413671.955704
4152	36741094 1427 3581232 3582892 1960 2000 41 2688.2245227534 2749.4448629274 111001.3441554 300531788.2364
4168	36742521 1142 3581236 3582892 1964 2000 37 0.973 5.9579285628361 64.480795546334 160.89404522035
4167	36743663 1241 3581236 3582892 1964 2000 37 -2.7816517333355 1.9325186801725 -3.6498850527338 32.890323490646
4162	36744904 1203 3581235 3582892 1963 2000 38 0 10.464893347169 242.96880856764 2350.4501106344
4159	36746107 1364 3581234 3582892 1962 2000 39 547.14746076075 752.61166865294 26239.271423701 17875006.800818
4158	36747471 1364 3581234 3582892 1962 2000 39 1844.8801205318 1974.4746800243 73889.621270437 140080632.04067
4176	36748835 1095 3581238 3582892 1966 2000 35 0.973 9.1031487253818 110.90246831311 551.59757073124
4175	36749930 1250 3581238 3582892 1966 2000 35 -3.2383561374138 2.5519552310347 1.953672046611 126.07330183461
4170	36751180 1257 3581237 3582892 1965 2000 36 3.6006564791548 14.261547826283 291.35604475672 2716.030157076
4166	36752437 1294 3581236 3582892 1964 2000 37 1301.2135770145 1457.3525386906 51693.39085773 72323038.533641
4165	36753731 1289 3581236 3582892 1964 2000 37 2771.4951323954 2864.213891191 104501.99400852 295191082.74332
4181	36755020 1051 3581241 3582892 1968 2000 33 0.973 10.631935243624 147.22466998949 973.01283157047
4180	36756071 1167 3581241 3582892 1968 2000 33 -4.4366944178507 2.3152689946652 11.328844584042 156.39548347185
4177	36757238 1187 3581240 3582892 1967 2000 34 3.8237295459103 15.26474731905 321.66567060751 3434.7366847658
4172	36758425 1220 3581238 3582892 1966 2000 35 779.82860654469 926.25741081461 29184.477637258 24402990.985549
4171	36759645 1222 3581238 3582892 1966 2000 35 2122.3764169402 2184.8046468493 75370.254242907 162323584.81666
4186	36760867 991 3581389 3582892 1970 2000 31 0.973 8.6347566920292 127.61035578428 730.34649485657
4185	36761858 1098 3581389 3582892 1970 2000 31 -3.5067363787107 2.5458762735128 10.570656973145 138.68082761971
4182	36762956 1116 3581388 3582892 1969 2000 32 3.466915514253 15.719667860858 278.53576082288 2819.5039743494
4179	36764072 1152 3581241 3582892 1968 2000 33 1298.646770122 1435.9680438084 45061.724212769 61635461.744205
4178	36765224 1151 3581241 3582892 1968 2000 33 2783.9582205842 2897.2242807803 93891.639538972 267179584.58287
4191	36766375 775 3581391 3582892 1972 2000 29 0.973 6.1182170196916 44.25226416932 118.75759690887
4190	36767150 821 3581391 3582892 1972 2000 29 -2.7343653935719 1.9841551681538 -3.6146360571145 36.569698320378
4187	36767971 832 3581390 3582892 1971 2000 30 0 9.3693688908264 62.265256520601 385.40550540298
4184	36768803 1085 3581389 3582892 1970 2000 31 1488.1434163382 1534.5663933106 47260.784770643 72057756.24084
4183	36769888 1085 3581389 3582892 1970 2000 31 1962.6690503407 1979.8478023657 61002.021296962 120041568.21749
4196	36770973 883 3581393 3582892 1974 2000 27 0.973 7.7228325196632 72.331386039721 288.9987707668
4195	36771856 979 3581393 3582892 1974 2000 27 -3.4132202285863 2.5814893578202 -0.81079912931705 70.434822996137
4192	36772835 979 3581392 3582892 1973 2000 28 2.6666733799472 13.677156236748 244.79750392908 2612.5739922442
4189	36773814 1015 3581391 3582892 1972 2000 29 1259.0374284729 1439.9627342904 39232.834483433 53215193.008141
4188	36774829 1013 3581391 3582892 1972 2000 29 1838.7531738398 1975.5886085883 55492.538906497 106246021.23565
4199	36775842 774 3581395 3582892 1976 2000 25 0.973 8.159111463722 82.820890418638 436.11882812761
4198	36776616 890 3581395 3582892 1976 2000 25 -3.2455746280602 2.2431774199638 0.41908831815493 97.790701378246
4197	36777506 907 3581394 3582892 1975 2000 26 1.1743731522056 14.951349467708 193.70859269885 1818.9825844398
4194	36778413 944 3581393 3582892 1974 2000 27 1321.6826187254 1431.2163412892 37193.115110775 51270100.483131
4193	36779357 940 3581393 3582892 1974 2000 27 2851.15081044 2863.8447290182 77101.552472114 220172522.85866
4206	36780297 695 3581399 3582892 1980 2000 21 0.973 8.6090506751578 92.470240015884 552.55869468767
4205	36780992 750 3581399 3582892 1980 2000 21 -3.3817905579052 2.4554995744489 12.05523530144 75.185183875251
4202	36781742 770 3581398 3582892 1979 2000 22 3.3998328530356 15.566041961302 229.20539136369 2760.5399749921
4201	36782512 801 3581397 3582892 1978 2000 23 1644.1780770331 1761.6979983302 38969.406105341 66066698.558373
4200	36783313 803 3581397 3582892 1978 2000 23 1837.039855279 1943.6403426986 42842.212997299 79822388.006536
4211	36784116 602 3581402 3582892 1982 2000 19 0.973 7.4129847811289 64.770259413896 316.89398606533
4210	36784718 677 3581402 3582892 1982 2000 19 -3.1469290864822 2.434832086633 8.0674372506447 65.681293429695
4207	36785395 698 3581401 3582892 1981 2000 20 3.5305016216139 11.597938872259 145.55858071879 1175.4188827314
4204	36786093 733 3581399 3582892 1980 2000 21 1187.8420983002 1213.0021290254 25367.620306856 30644340.141292
4203	36786826 731 3581399 3582892 1980 2000 21 3097.680647893 3211.0579650374 66311.705156156 209425310.21055
4216	36787557 534 3581574 3582892 1984 2000 17 0.973 7.5716799633488 45.76462995197 198.56050888581
4215	36788091 617 3581574 3582892 1984 2000 17 -2.9073710049935 2.211303716395 -2.6031393099002 47.451831078774
4212	36788708 630 3581573 3582892 1983 2000 18 0.45040079998936 12.698117275086 149.09898838425 1581.6676318135
4209	36789338 664 3581402 3582892 1982 2000 19 1593.6028590672 1612.4991286873 30500.797946684 48964001.87836
4208	36790002 662 3581402 3582892 1982 2000 19 2456.5896493519 2603.8399051165 48133.00225167 121991900.50609
4221	36790664 451 3581576 3582892 1986 2000 15 0.973 7.963100815357 44.195364752602 223.48309560049
4220	36791115 541 3581576 3582892 1986 2000 15 -3.1051932751812 2.2352168109827 -2.9475685600208 50.561559214106
4217	36791656 560 3581575 3582892 1985 2000 16 0.44915799334995 13.56653734734 121.64345829684 1277.7468876061
4214	36792216 594 3581574 3582892 1984 2000 17 1622.4023346815 1624.5850473131 27593.843978438 44789431.559207
4213	36792810 595 3581574 3582892 1984 2000 17 2018.3193144075 2139.9719898108 35324.645448884 73438136.193819
4226	36793405 403 3581578 3582892 1988 2000 13 0.973 6.66500333652 39.80096633623 184.40106819079
4225	36793808 465 3581578 3582892 1988 2000 13 -2.6511013796956 2.2499145851494 4.6539133654395 39.563799527349
4222	36794273 490 3581577 3582892 1987 2000 14 3.2980678958202 10.376530427974 100.26597207077 778.80685985115
4219	36794763 524 3581576 3582892 1986 2000 15 1474.4987300265 1560.9858532252 22659.735643994 34242819.6665
4218	36795287 525 3581576 3582892 1986 2000 15 3064.8974511294 3074.7919489945 46014.133377994 141153568.04033
4231	36795812 364 3581580 3582892 1990 2000 11 0.973 5.0315298221651 30.590526259387 104.7211770593
4230	36796176 392 3581580 3582892 1990 2000 11 -2.5428426307793 1.9941030360409 4.9587396980569 24.244901121958
4227	36796568 418 3581579 3582892 1989 2000 12 3.3821367712465 8.3713082525003 78.17155408996 543.55733984213
4224	36796986 454 3581578 3582892 1988 2000 13 1596.7362614991 1656.624368203 21137.578023933 34375524.712769
4223	36797440 451 3581578 3582892 1988 2000 13 2329.8271872009 2344.622393548 30430.054125615 71230076.782178
4234	36797891 315 3581582 3582892 1992 2000 9 1.8944456133347 8.6280303653582 44.688418951785 275.1257785746
4233	36798206 321 3581582 3582892 1992 2000 9 -0.064890436739661 2.0431716610515 11.761071199411 22.651643521596
4232	36798527 348 3581581 3582892 1991 2000 10 3.0653885257233 14.891350161874 106.58683981652 1318.3749415916
4229	36798875 385 3581580 3582892 1990 2000 11 1548.2127323746 1589.7239126869 17362.127040959 27406091.081259
4228	36799260 385 3581580 3582892 1990 2000 11 1768.2859376816 1842.1126513255 19748.362661549 35461257.170139
4241	36799645 175 3581588 3582892 1996 2000 5 4.0260477532567 7.4397266492502 27.773313765888 161.13088798689
4240	36799820 175 3581588 3582892 1996 2000 5 1.3064216147942 2.0924603928416 9.148822947178 17.128509003699
4237	36799995 210 3581587 3582892 1995 2000 6 3.3774912470105 12.526314194189 48.875203886512 458.8416790689
4236	36800205 240 3581584 3582892 1994 2000 7 1305.62547231 1317.8290943756 9181.0100434185 12041725.684762
4235	36800445 245 3581584 3582892 1994 2000 7 2842.9724907513 2865.3313844686 20015.709694986 57233104.560372
4246	36800690 105 3582890 3582892 1998 2000 3 3.2835172056357 4.5448125629635 11.636228804229 45.936901537727
4245	36800795 106 3582890 3582892 1998 2000 3 0.92896278817124 2.0080022239941 4.7854011320361 8.311760882615
4242	36800901 140 3582889 3582892 1997 2000 4 3.0393100155944 7.8247111476305 22.807081762273 143.49021619563
4239	36801041 173 3581588 3582892 1996 2000 5 1212.275970468 1212.8480361634 6062.3456525489 7350407.1985082
4238	36801214 175 3581588 3582892 1996 2000 5 3132.9691108754 3145.2343757039 15685.54533585 49207375.132687
4251	36801389 35 3582892 3582892 2000 2000 1 4.0417710803118 4.0417710803118 4.0417710803118 16.335913465645
4250	36801424 35 3582892 3582892 2000 2000 1 2.1650949759874 2.1650949759874 2.1650949759874 4.6876362550461
4247	36801459 69 3582891 3582892 1999 2000 2 2.9563417319315 5.121436707919 8.0777784398505 34.96907038918
4244	36801528 105 3582890 3582892 1998 2000 3 546.36738535696 548.27470392788 1641.0094746418 897639.79053081
4243	36801633 105 3582890 3582892 1998 2000 3 2662.8498565681 2663.6845206653 7990.2188978988 21281199.809889
4249	36801738 35 3582892 3582892 2000 2000 1 932.32226127654 932.32226127654 932.32226127654 869224.7988718
4248	36801773 35 3582892 3582892 2000 2000 1 2731.6650159313 2731.6650159313 2731.6650159313 7461993.7592628

