<<<<<<< HEAD
file 81463 1591328478                                           
version 2
run General-0-20200604-23:39:07-25080
attr configname General
attr datetime 20200604-23:39:07
attr experiment General
attr inifile omnetpp.ini
attr iterationvars ""
attr iterationvarsf ""
attr measurement ""
attr network globcomm.simulation.Thesis
attr processid 25080
attr repetition 0
attr replication #0
attr resultdir results
attr runnumber 0
attr seedset 0
param **.debug false
param **.coreDebug false
param *.playgroundSizeX 3000m
param *.playgroundSizeY 3000m
param *.playgroundSizeZ 500m
param *.annotations.draw true
param *.manager.updateInterval 1s
param *.manager.host "\"localhost\""
param *.manager.port 9999
param *.manager.autoShutdown true
param *.manager.launchConfig "xmldoc(\"erlangen.launchd.xml\")"
param Thesis.rsu[0].mobility.x 2000
param Thesis.rsu[0].mobility.y 2000
param Thesis.rsu[0].mobility.z 3
param *.rsu[*].applType "\"globcomm.src.RSU11p\""
param *.rsu[*].appl.headerLength "80 bit"
param *.rsu[*].appl.sendBeacons false
param *.rsu[*].appl.dataOnSch false
param *.rsu[*].appl.beaconInterval 1s
param *.rsu[*].appl.beaconUserPriority 7
param *.rsu[*].appl.dataUserPriority 5
param *.connectionManager.sendDirect true
param *.connectionManager.maxInterfDist 400m
param *.connectionManager.drawMaxIntfDist true
param *.**.nic.mac1609_4.useServiceChannel false
param *.**.nic.mac1609_4.txPower 30mW
param *.**.nic.mac1609_4.bitrate 6Mbps
param *.**.nic.phy80211p.sensitivity -89dBm
param *.**.nic.phy80211p.useThermalNoise true
param *.**.nic.phy80211p.thermalNoise -110dBm
param *.**.nic.phy80211p.decider "xmldoc(\"config.xml\")"
param *.**.nic.phy80211p.analogueModels "xmldoc(\"config.xml\")"
param *.**.nic.phy80211p.usePropagationDelay true
param *.**.nic.phy80211p.antenna "xmldoc(\"antenna.xml\", \"/root/Antenna[@id='monopole']\")"
param *.node[*].applType "\"globcomm.src.MyThesisApp\""
param *.node[*].appl.headerLength "80 bit"
param *.node[*].appl.sendBeacons false
param *.node[*].appl.dataOnSch false
param *.node[*].appl.beaconInterval 1s
param *.node[*].veinsmobilityType.debug true
param *.node[*].veinsmobility.x 0
param *.node[*].veinsmobility.y 0
param *.node[*].veinsmobility.z 1.895
param *.node[*].veinsmobility.accidentCount 0
param *.node[*].veinsmobility.accidentStart 75s
param *.node[*].veinsmobility.accidentDuration 50s
param Thesis.manager.numVehicles 5

vector 0 Thesis.node[0].veinsmobility posx ETV
vector 1 Thesis.node[0].veinsmobility posy ETV
vector 2 Thesis.node[0].veinsmobility speed ETV
vector 3 Thesis.node[1].veinsmobility posx ETV
vector 4 Thesis.node[1].veinsmobility posy ETV
vector 5 Thesis.node[2].veinsmobility posx ETV
vector 6 Thesis.node[2].veinsmobility posy ETV
vector 7 Thesis.node[3].veinsmobility posx ETV
vector 8 Thesis.node[3].veinsmobility posy ETV
vector 9 Thesis.node[4].veinsmobility posx ETV
vector 10 Thesis.node[4].veinsmobility posy ETV
vector 11 Thesis.node[0].veinsmobility acceleration ETV
vector 12 Thesis.node[0].veinsmobility co2emission ETV
vector 13 Thesis.node[1].veinsmobility speed ETV
vector 14 Thesis.node[2].veinsmobility speed ETV
vector 15 Thesis.node[3].veinsmobility speed ETV
vector 16 Thesis.node[4].veinsmobility speed ETV
vector 17 Thesis.node[1].veinsmobility acceleration ETV
vector 18 Thesis.node[1].veinsmobility co2emission ETV
vector 19 Thesis.node[2].veinsmobility acceleration ETV
vector 20 Thesis.node[2].veinsmobility co2emission ETV
vector 21 Thesis.node[3].veinsmobility acceleration ETV
vector 22 Thesis.node[3].veinsmobility co2emission ETV
vector 23 Thesis.node[4].veinsmobility acceleration ETV
vector 24 Thesis.node[4].veinsmobility co2emission ETV
vector 25 Thesis.node[5].veinsmobility posx ETV
vector 26 Thesis.node[5].veinsmobility posy ETV
vector 27 Thesis.node[5].veinsmobility speed ETV
vector 28 Thesis.node[5].veinsmobility acceleration ETV
vector 29 Thesis.node[5].veinsmobility co2emission ETV
24	3950 2026 6 360 5 100 96 0.973 13.67870126268 214.65879446277 1066.6780134266
23	5976 2035 6 360 5 100 96 -3.0179749594543 2.5940394537663 13.230214120983 92.624235596733
16	8011 1963 5 360 4 100 97 0 22.105813048455 545.72255825036 7779.5356606806
10	9974 2615 4 360 3 100 98 2271.9876764937 2345.7093090506 224785.26747823 515634328.15194
9	12589 2513 4 360 3 100 98 1987.6487085502 2445.0530060817 221502.93187621 501323525.65966
0	15102 3157 2 566 1 122 122 2050.8270289986 2291.854096983 271965.8285792 606623392.75893
1	18259 3158 2 566 1 122 122 2275.0401158868 2405.3613473987 281661.01092097 650386012.01292
2	21417 2092 3 566 2 122 121 0 19.799925733249 360.17895063608 4071.519430691
3	23509 3102 4 566 3 122 120 2045.3088540848 2189.2758607317 254111.37815378 538311923.06044
4	26611 3103 4 566 3 122 120 2288.1937829651 2334.0525058916 277278.65977742 640716747.27174
5	29714 3097 4 566 3 122 120 2303.7621964386 2456.1131246374 285665.58538943 680280145.72508
6	32811 3099 4 566 3 122 120 2283.1094638243 2331.4450480713 276850.44210082 638742220.66154
7	35910 3108 4 566 3 122 120 2050.3627827138 2284.6120931925 266998.4350424 594399901.09989
8	39018 3110 4 566 3 122 120 2274.6429491085 2383.0826717808 276672.91775894 637979476.58162
11	42128 2244 4 566 3 122 120 -3.6058691922551 2.2686612884649 9.3629075442746 205.32885109998
12	44372 2304 4 566 3 122 120 0.973 11.933137074224 248.91949323268 1217.9719348772
13	46676 3117 5 566 4 122 119 0 1.3888390999475 153.10487703452 207.49845665872
14	49793 3196 5 566 4 122 119 1.3195837497511 1.388562813744 160.97937465301 217.82175235914
15	52989 2218 5 566 4 122 119 0 18.653438245699 328.7336879928 3330.6383887375
17	55207 3421 6 566 5 122 118 -1.3447698677515 1.2792264513398 -0.042627187730331 3.5597615756806
18	58628 3116 6 566 5 122 118 0.973 1.5662805611674 137.91757660705 161.60467196039
19	61744 3513 6 566 5 122 118 -0.06702368888202 0.067598401284259 -0.036192192540815 0.10905066220038
20	65257 3182 6 566 5 122 118 1.1525932403783 1.1997631379284 138.70826772755 163.06418414922
21	68439 2260 6 566 5 122 118 -2.8939859118868 2.1154679680487 2.8874474422083 145.68328358226
22	70699 2245 6 566 5 122 118 0.973 11.325357004101 212.92508864338 877.80376740411
25	72944 1715 299 566 60 122 63 2307.6895536389 2452.4370093711 148416.68464861 349736782.02459
26	74659 1718 299 566 60 122 63 2284.2902135224 2330.2030151993 145841.18484608 337622954.14055
27	76377 1688 300 566 61 122 62 1.3058908265525 11.599238678766 153.03386813278 810.86355618489
28	78065 1810 301 566 62 122 61 -2.4973178676657 1.9798857197445 -1.602351238291 33.886197075607
29	79875 1586 301 566 62 122 61 0.973 6.7290503738843 89.770650747902 205.78242136054

=======
file 19078 1579059827                                           
version 2
run General-0-20200114-22:43:38-24421
attr configname General
attr datetime 20200114-22:43:38
attr experiment General
attr inifile omnetpp.ini
attr iterationvars ""
attr iterationvarsf ""
attr measurement ""
attr network globcomm.simulation.Thesis
attr processid 24421
attr repetition 0
attr replication #0
attr resultdir results
attr runnumber 0
attr seedset 0
param *.playgroundSizeX 3000m
param *.playgroundSizeY 3000m
param *.playgroundSizeZ 500m
param *.annotations.draw true
param *.manager.updateInterval 1s
param *.manager.host "\"localhost\""
param *.manager.port 9999
param *.manager.autoShutdown true
param *.manager.launchConfig "xmldoc(\"erlangen.launchd.xml\")"
param Thesis.rsu[0].mobility.x 2000
param Thesis.rsu[0].mobility.y 2000
param Thesis.rsu[0].mobility.z 3
param *.rsu[*].applType "\"globcomm.src.RSU11p\""
param *.rsu[*].appl.headerLength "80 bit"
param *.rsu[*].appl.sendBeacons false
param *.rsu[*].appl.dataOnSch false
param *.rsu[*].appl.beaconInterval 1s
param *.rsu[*].appl.beaconUserPriority 7
param *.rsu[*].appl.dataUserPriority 5
param *.connectionManager.sendDirect true
param *.connectionManager.maxInterfDist 400m
param *.connectionManager.drawMaxIntfDist true
param *.**.nic.mac1609_4.useServiceChannel false
param *.**.nic.mac1609_4.txPower 20mW
param *.**.nic.mac1609_4.bitrate 6Mbps
param *.**.nic.phy80211p.minPowerLevel -110dBm
param *.**.nic.phy80211p.useNoiseFloor true
param *.**.nic.phy80211p.noiseFloor -98dBm
param *.**.nic.phy80211p.decider "xmldoc(\"config.xml\")"
param *.**.nic.phy80211p.analogueModels "xmldoc(\"config.xml\")"
param *.**.nic.phy80211p.usePropagationDelay true
param *.**.nic.phy80211p.antenna "xmldoc(\"antenna.xml\", \"/root/Antenna[@id='monopole']\")"
param *.node[*].applType "\"globcomm.src.MyThesisApp\""
param *.node[*].appl.headerLength "80 bit"
param *.node[*].appl.sendBeacons false
param *.node[*].appl.dataOnSch false
param *.node[*].appl.beaconInterval 1s
param *.node[*].veinsmobility.x 0
param *.node[*].veinsmobility.y 0
param *.node[*].veinsmobility.z 0
param *.node[*].veinsmobility.accidentCount 0
param *.node[*].veinsmobility.accidentStart 75s
param *.node[*].veinsmobility.accidentDuration 50s
param Thesis.numVehicles 10

vector 0 Thesis.node[0].veinsmobility posx ETV
vector 1 Thesis.node[0].veinsmobility posy ETV
vector 2 Thesis.node[0].veinsmobility speed ETV
vector 3 Thesis.node[0].veinsmobility acceleration ETV
vector 4 Thesis.node[0].veinsmobility co2emission ETV
vector 5 Thesis.node[1].veinsmobility posx ETV
vector 6 Thesis.node[1].veinsmobility posy ETV
vector 7 Thesis.node[1].veinsmobility speed ETV
vector 8 Thesis.node[1].veinsmobility acceleration ETV
vector 9 Thesis.node[1].veinsmobility co2emission ETV
9	2728 913 78 116 62 100 39 0.973 17.192600992472 227.94312222984 2183.0859850944
8	3641 968 78 116 62 100 39 -4.5 2.3564872498088 26.124882465675 123.05145447655
7	4609 976 77 116 61 100 40 2.8913433438414 29.101344760652 566.79547213579 10072.588416284
6	5585 995 76 116 60 100 41 2271.9546333962 2345.3884989731 94480.714121164 217740598.09887
5	6580 1001 76 116 60 100 41 1988.6586020447 2452.4369058435 93399.041352671 213408028.84478
4	7581 1997 4 137 3 121 119 0.973 12.674159453572 281.13939698117 1591.9376370841
3	9578 1827 4 137 3 121 119 -4.5 2.3085857594696 6.9769190465124 304.7848314596
2	11405 1828 3 137 2 121 120 0 21.274967969651 420.86487257989 5286.3818406367
1	13233 2900 2 137 1 121 121 2275.0583740921 2466.8188466946 279775.50631318 647086333.08688
0	16133 2944 2 137 1 121 121 2050.8554437618 2311.8502361074 269882.73719186 602318966.94125

>>>>>>> 2764ba4dcb49532f77736118d29200e92ee52179
