version 2
run General-0-20191106-14:48:25-14412
attr configname General
attr datetime 20191106-14:48:25
attr experiment General
attr inifile omnetpp.ini
attr iterationvars ""
attr iterationvarsf ""
attr measurement ""
attr network globcomm.simulation.Thesis
attr processid 14412
attr repetition 0
attr replication #0
attr resultdir results
attr runnumber 0
attr seedset 0
param **.debug false
param **.coreDebug false
param *.playgroundSizeX 3000m
param *.playgroundSizeY 3000m
param *.playgroundSizeZ 500m
param *.annotations.draw true
param *.manager.updateInterval 1s
param *.manager.host "\"localhost\""
param *.manager.port 9999
param *.manager.autoShutdown true
param *.manager.launchConfig "xmldoc(\"erlangen.launchd.xml\")"
param Thesis.rsu[0].mobility.x 2000
param Thesis.rsu[0].mobility.y 2000
param Thesis.rsu[0].mobility.z 3
param *.rsu[*].applType "\"globcomm.src.RSU11p\""
param *.rsu[*].appl.headerLength "80 bit"
param *.rsu[*].appl.sendBeacons true
param *.rsu[*].appl.dataOnSch false
param *.rsu[*].appl.beaconInterval 1s
param *.rsu[*].appl.beaconUserPriority 7
param *.rsu[*].appl.dataUserPriority 5
param *.connectionManager.sendDirect true
param *.connectionManager.maxInterfDist 400m
param *.connectionManager.drawMaxIntfDist true
param *.**.nic.mac1609_4.useServiceChannel false
param *.**.nic.mac1609_4.txPower 20mW
param *.**.nic.mac1609_4.bitrate 6Mbps
param *.**.nic.phy80211p.sensitivity -89dBm
param *.**.nic.phy80211p.useThermalNoise true
param *.**.nic.phy80211p.thermalNoise -110dBm
param *.**.nic.phy80211p.decider "xmldoc(\"config.xml\")"
param *.**.nic.phy80211p.analogueModels "xmldoc(\"config.xml\")"
param *.**.nic.phy80211p.usePropagationDelay true
param *.**.nic.phy80211p.antenna "xmldoc(\"antenna.xml\", \"/root/Antenna[@id='monopole']\")"
param *.node[*].applType "\"globcomm.src.MyThesisApp\""
param *.node[*].appl.headerLength "80 bit"
param *.node[*].appl.sendBeacons false
param *.node[*].appl.dataOnSch false
param *.node[*].appl.beaconInterval 1s
param *.node[*].veinsmobilityType.debug true
param *.node[*].veinsmobility.x 0
param *.node[*].veinsmobility.y 0
param *.node[*].veinsmobility.z 1.895
param *.node[*].veinsmobility.accidentCount 0
param *.node[*].veinsmobility.accidentStart 75s
param *.node[*].veinsmobility.accidentDuration 50s
param Thesis.manager.numVehicles 10

vector 0 Thesis.node[0].veinsmobility posx ETV
vector 1 Thesis.node[0].veinsmobility posy ETV
vector 2 Thesis.node[0].veinsmobility speed ETV
vector 3 Thesis.node[1].veinsmobility posx ETV
vector 4 Thesis.node[1].veinsmobility posy ETV
vector 5 Thesis.node[2].veinsmobility posx ETV
vector 6 Thesis.node[2].veinsmobility posy ETV
vector 7 Thesis.node[3].veinsmobility posx ETV
vector 8 Thesis.node[3].veinsmobility posy ETV
vector 9 Thesis.node[0].veinsmobility acceleration ETV
vector 10 Thesis.node[0].veinsmobility co2emission ETV
vector 11 Thesis.node[4].veinsmobility posx ETV
vector 12 Thesis.node[4].veinsmobility posy ETV
vector 13 Thesis.node[1].veinsmobility speed ETV
vector 14 Thesis.node[2].veinsmobility speed ETV
vector 15 Thesis.node[3].veinsmobility speed ETV
vector 16 Thesis.node[1].veinsmobility acceleration ETV
vector 17 Thesis.node[1].veinsmobility co2emission ETV
vector 18 Thesis.node[2].veinsmobility acceleration ETV
vector 19 Thesis.node[2].veinsmobility co2emission ETV
vector 20 Thesis.node[3].veinsmobility acceleration ETV
vector 21 Thesis.node[3].veinsmobility co2emission ETV
vector 22 Thesis.node[4].veinsmobility speed ETV
vector 23 Thesis.node[4].veinsmobility acceleration ETV
vector 24 Thesis.node[4].veinsmobility co2emission ETV
vector 25 Thesis.node[5].veinsmobility posx ETV
vector 26 Thesis.node[5].veinsmobility posy ETV
vector 27 Thesis.node[6].veinsmobility posx ETV
vector 28 Thesis.node[6].veinsmobility posy ETV
vector 29 Thesis.node[5].veinsmobility speed ETV
vector 30 Thesis.node[7].veinsmobility posx ETV
vector 31 Thesis.node[7].veinsmobility posy ETV
vector 32 Thesis.node[5].veinsmobility acceleration ETV
vector 33 Thesis.node[5].veinsmobility co2emission ETV
vector 34 Thesis.node[6].veinsmobility speed ETV
vector 35 Thesis.node[6].veinsmobility acceleration ETV
vector 36 Thesis.node[6].veinsmobility co2emission ETV
vector 37 Thesis.node[7].veinsmobility speed ETV
vector 38 Thesis.node[7].veinsmobility acceleration ETV
vector 39 Thesis.node[7].veinsmobility co2emission ETV
vector 40 Thesis.node[8].veinsmobility posx ETV
vector 41 Thesis.node[8].veinsmobility posy ETV
vector 42 Thesis.node[9].veinsmobility posx ETV
vector 43 Thesis.node[9].veinsmobility posy ETV
vector 44 Thesis.node[8].veinsmobility speed ETV
vector 45 Thesis.node[8].veinsmobility acceleration ETV
vector 46 Thesis.node[8].veinsmobility co2emission ETV
vector 47 Thesis.node[9].veinsmobility speed ETV
vector 48 Thesis.node[9].veinsmobility acceleration ETV
vector 49 Thesis.node[9].veinsmobility co2emission ETV
vector 50 Thesis.node[10].veinsmobility posx ETV
vector 51 Thesis.node[10].veinsmobility posy ETV
vector 52 Thesis.node[10].veinsmobility speed ETV
vector 53 Thesis.node[10].veinsmobility acceleration ETV
vector 54 Thesis.node[10].veinsmobility co2emission ETV
19	6	5	1.6401812610325
19	7	6	1.6599003368748
19	8	7	1.884585469468
19	9	8	1.5857283275799
19	10	9	1.8101724128959
19	11	10	1.6395865324664
19	12	11	1.7932673329855
19	13	12	1.8480915128663
19	14	13	1.8178931612246
19	15	14	1.6964231534886
19	16	15	1.7165288765326
19	17	16	1.7361898111346
19	18	17	0.973
19	19	18	0.973
19	20	19	0.973
19	21	20	4.4181455763148
19	22	21	5.3156691766235
19	23	22	4.3488354588524
19	24	23	3.8089160313141
19	25	24	7.4733789617075
19	26	25	0.973
19	27	26	0.973
19	28	27	0.973
19	29	28	0.973
19	30	29	0.973
19	31	30	0.973
19	32	31	0.973
19	33	32	0.973
19	34	33	0.973
19	35	34	0.973
19	36	35	0.973
19	37	36	0.973
19	38	37	0.973
19	39	38	0.973
19	40	39	0.973
19	41	40	0.973
19	42	41	0.973
19	43	42	0.973
19	44	43	0.973
19	45	44	0.973
19	46	45	0.973
19	47	46	0.973
19	48	47	0.973
19	49	48	0.973
19	50	49	0.973
19	51	50	0.973
19	52	51	0.973
19	53	52	0.973
19	54	53	0.973
19	55	54	0.973
19	56	55	0.973
19	57	56	0.973
19	58	57	0.973
19	59	58	0.973
19	60	59	0.973
19	61	60	0.973
19	62	61	0.973
19	63	62	0.973
19	64	63	0.973
19	65	64	0.973
19	66	65	0.973
19	67	66	0.973
19	68	67	0.973
19	69	68	0.973
19	70	69	0.973
19	71	70	0.973
19	72	71	0.973
19	73	72	0.973
19	74	73	0.973
19	75	74	0.973
19	76	75	0.973
19	77	76	0.973
19	78	77	0.973
19	79	78	0.973
19	80	79	0.973
19	81	80	0.973
19	82	81	2.3276321744172
19	83	82	2.2687526889494
19	84	83	5.1340636719403
19	85	84	5.4961152084468
19	86	85	6.025487994612
19	87	86	7.7557124577948
19	88	87	8.2228887972783
19	89	88	9.4396262660458
19	90	89	11.31552360008
19	91	90	11.97926474308
19	92	91	12.916596682717
19	93	92	16.557665661728
19	94	93	15.208273834245
19	95	94	7.629554653711
19	96	95	0.973
19	97	96	0.973
19	98	97	11.748895706118
19	99	98	14.331453006406
19	100	99	15.842235462606
18	6	5	-0.037624231886584
18	7	6	-0.029132286340463
18	8	7	0.056429195702075
18	9	8	-0.058015208898578
18	10	9	0.028556024006102
18	11	10	-0.036783054170664
18	12	11	0.022455058451742
18	13	12	0.042324525217992
18	14	13	0.02960790741723
18	15	14	-0.016889445267152
18	16	15	-0.0088322543585679
18	17	16	-0.0011714094388289
18	18	17	-2.0558252682288
18	19	18	-2.7378220229633
18	20	19	-2.4693552396272
18	21	20	2.2163436383197
18	22	21	2.0445622988022
18	23	22	1.2681808801949
18	24	23	0.89803884921828
18	25	24	1.9763828681037
18	26	25	-0.66735373155159
18	27	26	-3.1032726334015
18	28	27	-2.7632437395478
18	29	28	-2.2883061656911
18	30	29	-1.5318879824884
18	31	30	-0.83938424308792
18	32	31	-0.20169914181396
18	33	32	-0.44378241406695
18	34	33	0
18	35	34	0
18	36	35	0
18	37	36	0
18	38	37	0
18	39	38	0
18	40	39	0
18	41	40	0
18	42	41	0
18	43	42	0
18	44	43	0
18	45	44	0
18	46	45	0
18	47	46	0
18	48	47	0
18	49	48	0
18	50	49	0
18	51	50	0
18	52	51	0
18	53	52	0
18	54	53	0
18	55	54	0
18	56	55	0
18	57	56	0
18	58	57	0
18	59	58	0
18	60	59	0
18	61	60	0
18	62	61	0
18	63	62	0
18	64	63	0
18	65	64	0
18	66	65	0
18	67	66	0
18	68	67	0
18	69	68	0
18	70	69	0
18	71	70	0
18	72	71	0
18	73	72	0
18	74	73	0
18	75	74	0
18	76	75	0
18	77	76	0
18	78	77	0
18	79	78	0
18	80	79	0
18	81	80	0
18	82	81	2.1490563485053
18	83	82	1.2218369768273
18	84	83	2.5882128000166
18	85	84	2.0481514124107
18	86	85	1.8350106855808
18	87	86	2.0619649706036
18	88	87	1.8698359993938
18	89	88	1.9093305623019
18	90	89	2.065021840455
18	91	90	1.9417405510694
18	92	91	1.8913058135472
18	93	92	2.2692564934306
18	94	93	1.8254660970182
18	95	94	0.56668521184847
18	96	95	-3.757142919948
18	97	96	-3.8045713925339
18	98	97	1.7950285957451
18	99	98	2.0417824853654
18	100	99	2.0559402964404
14	5	4	10.707499227395
14	6	5	10.669874995509
14	7	6	10.640742709168
14	8	7	10.69717190487
14	9	8	10.639156695972
14	10	9	10.667712719978
14	11	10	10.630929665807
14	12	11	10.653384724259
14	13	12	10.695709249477
14	14	13	10.725317156894
14	15	14	10.708427711627
14	16	15	10.699595457269
14	17	16	10.69842404783
14	18	17	8.6425987796009
14	19	18	5.9047767566376
14	20	19	3.4354215170104
14	21	20	5.6517651553302
14	22	21	7.6963274541324
14	23	22	8.9645083343272
14	24	23	9.8625471835455
14	25	24	11.838930051649
14	26	25	11.171576320098
14	27	26	8.0683036866962
14	28	27	5.3050599471484
14	29	28	3.0167537814573
14	30	29	1.4848657989688
14	31	30	0.64548155588091
14	32	31	0.44378241406695
14	33	32	0
14	34	33	0
14	35	34	0
14	36	35	0
14	37	36	0
14	38	37	0
14	39	38	0
14	40	39	0
14	41	40	0
14	42	41	0
14	43	42	0
14	44	43	0
14	45	44	0
14	46	45	0
14	47	46	0
14	48	47	0
14	49	48	0
14	50	49	0
14	51	50	0
14	52	51	0
14	53	52	0
14	54	53	0
14	55	54	0
14	56	55	0
14	57	56	0
14	58	57	0
14	59	58	0
14	60	59	0
14	61	60	0
14	62	61	0
14	63	62	0
14	64	63	0
14	65	64	0
14	66	65	0
14	67	66	0
14	68	67	0
14	69	68	0
14	70	69	0
14	71	70	0
14	72	71	0
14	73	72	0
14	74	73	0
14	75	74	0
14	76	75	0
14	77	76	0
14	78	77	0
14	79	78	0
14	80	79	0
14	81	80	0
14	82	81	2.1490563485053
14	83	82	3.3708933253327
14	84	83	5.9591061253493
14	85	84	8.00725753776
14	86	85	9.8422682233407
14	87	86	11.904233193944
14	88	87	13.774069193338
14	89	88	15.68339975564
14	90	89	17.748421596095
14	91	90	19.690162147164
14	92	91	21.581467960712
14	93	92	23.850724454142
14	94	93	25.676190551161
14	95	94	26.242875763009
14	96	95	22.485732843061
14	97	96	18.681161450527
14	98	97	20.476190046272
14	99	98	22.517972531638
14	100	99	24.573912828078
6	4	3	2287.1608084153
6	5	4	2287.1608084153
6	6	5	2290.383691159
6	7	6	2293.6045485822
6	8	7	2296.8242835414
6	9	8	2300.0433867729
6	10	9	2303.2711798813
6	11	10	2306.4931504432
6	12	11	2309.7236626524
6	13	12	2312.9722005547
6	14	13	2316.2371628562
6	15	14	2319.4832460596
6	16	15	2322.7122436726
6	17	16	2325.9341822952
6	18	17	2329.1527326927
6	19	18	2332.1584173518
6	20	19	2334.3050359741
6	21	20	2335.6538764915
6	22	21	2337.0326131473
6	23	22	2337.9189874223
6	24	23	2333.8718075692
6	25	24	2325.3964379672
6	26	25	2314.9479882761
6	27	26	2303.3968101746
6	28	27	2294.4517410195
6	29	28	2288.295439379
6	30	29	2284.4996123919
6	31	30	2282.481162744
6	32	31	2281.5502160827
6	33	32	2281.1067273028
6	34	33	2280.971736486
6	35	34	2280.971736486
6	36	35	2280.971736486
6	37	36	2280.971736486
6	38	37	2280.971736486
6	39	38	2280.971736486
6	40	39	2280.971736486
6	41	40	2280.971736486
6	42	41	2280.971736486
6	43	42	2280.971736486
6	44	43	2280.971736486
6	45	44	2280.971736486
6	46	45	2280.971736486
6	47	46	2280.971736486
6	48	47	2280.971736486
6	49	48	2280.971736486
6	50	49	2280.971736486
6	51	50	2280.971736486
6	52	51	2280.971736486
6	53	52	2280.971736486
6	54	53	2280.971736486
6	55	54	2280.971736486
6	56	55	2280.971736486
6	57	56	2280.971736486
6	58	57	2280.971736486
6	59	58	2280.971736486
6	60	59	2280.971736486
6	61	60	2280.971736486
6	62	61	2280.971736486
6	63	62	2280.971736486
6	64	63	2280.971736486
6	65	64	2280.971736486
6	66	65	2280.971736486
6	67	66	2280.971736486
6	68	67	2280.971736486
6	69	68	2280.971736486
6	70	69	2280.971736486
6	71	70	2280.971736486
6	72	71	2280.971736486
6	73	72	2280.971736486
6	74	73	2280.971736486
6	75	74	2280.971736486
6	76	75	2280.971736486
6	77	76	2280.971736486
6	78	77	2280.971736486
6	79	78	2280.971736486
6	80	79	2280.971736486
6	81	80	2280.971736486
6	82	81	2280.971736486
6	83	82	2279.8622941136
6	84	83	2277.8797600021
6	85	84	2275.3558993312
6	86	85	2273.2765048415
6	87	86	2271.9685086449
6	88	87	2272.2375989536
6	89	88	2275.7350693578
6	90	89	2280.0011038083
6	91	90	2284.8404965042
6	92	91	2290.2625368648
6	93	92	2296.430996835
6	94	93	2303.4306632465
6	95	94	2311.1294871808
6	96	95	2319.3276050092
6	97	96	2326.8167537442
6	98	97	2333.1000275131
6	99	98	2339.0441462901
6	100	99	2345.5669768011
5	4	3	2443.4287241251
5	5	4	2443.4287241251
5	6	5	2433.2361589947
5	7	6	2423.0499990651
5	8	7	2412.8673889973
5	9	8	2402.6867768069
5	10	9	2392.4786823459
5	11	10	2382.2961275801
5	12	11	2372.1203094148
5	13	12	2361.9437885698
5	14	13	2351.7759091019
5	15	14	2341.5858888052
5	16	15	2331.3756702908
5	17	16	2321.1877725837
5	18	17	2311.0105885791
5	19	18	2301.5064944814
5	20	19	2294.7188012625
5	21	20	2290.4684441442
5	22	21	2286.2037804512
5	23	22	2279.5077998761
5	24	23	2272.317748298
5	25	24	2268.8653211758
5	26	25	2265.4539221128
5	27	26	2261.6824843094
5	28	27	2258.7619361481
5	29	28	2256.7519153059
5	30	29	2255.5125849737
5	31	30	2254.8535649811
5	32	31	2254.5496126569
5	33	32	2254.4048144091
5	34	33	2254.3607401627
5	35	34	2254.3607401627
5	36	35	2254.3607401627
5	37	36	2254.3607401627
5	38	37	2254.3607401627
5	39	38	2254.3607401627
5	40	39	2254.3607401627
5	41	40	2254.3607401627
5	42	41	2254.3607401627
5	43	42	2254.3607401627
5	44	43	2254.3607401627
5	45	44	2254.3607401627
5	46	45	2254.3607401627
5	47	46	2254.3607401627
5	48	47	2254.3607401627
5	49	48	2254.3607401627
5	50	49	2254.3607401627
5	51	50	2254.3607401627
5	52	51	2254.3607401627
5	53	52	2254.3607401627
5	54	53	2254.3607401627
5	55	54	2254.3607401627
5	56	55	2254.3607401627
5	57	56	2254.3607401627
5	58	57	2254.3607401627
5	59	58	2254.3607401627
5	60	59	2254.3607401627
5	61	60	2254.3607401627
5	62	61	2254.3607401627
5	63	62	2254.3607401627
5	64	63	2254.3607401627
5	65	64	2254.3607401627
5	66	65	2254.3607401627
5	67	66	2254.3607401627
5	68	67	2254.3607401627
5	69	68	2254.3607401627
5	70	69	2254.3607401627
5	71	70	2254.3607401627
5	72	71	2254.3607401627
5	73	72	2254.3607401627
5	74	73	2254.3607401627
5	75	74	2254.3607401627
5	76	75	2254.3607401627
5	77	76	2254.3607401627
5	78	77	2254.3607401627
5	79	78	2254.3607401627
5	80	79	2254.3607401627
5	81	80	2254.3607401627
5	82	81	2254.3607401627
5	83	82	2253.8621111689
5	84	83	2251.5001446915
5	85	84	2247.5137874797
5	86	85	2240.7497801165
5	87	86	2231.866575865
5	88	87	2220.9609743654
5	89	88	2208.5887201445
5	90	89	2194.33398389
5	91	90	2178.163400339
5	92	91	2160.1835973865
5	93	92	2140.3422267647
5	94	93	2118.660200449
5	95	94	2094.9366666625
5	96	95	2069.8104964225
5	97	96	2046.8670250302
5	98	97	2027.3420732175
5	99	98	2008.630295426
5	100	99	1988.0967630939
17	6	5	1.1894336748305
17	7	6	1.1606109228955
17	8	7	1.1768041156188
17	9	8	1.1684886308089
17	10	9	1.1786721143324
17	11	10	1.1777547439704
17	12	11	1.1657240644619
17	13	12	1.1737109499627
17	14	13	1.1839513217031
17	15	14	1.1786364447475
17	16	15	1.1847752412335
17	17	16	1.1609953030203
17	18	17	1.1874777300328
17	19	18	1.1710175880459
17	20	19	1.1762323024366
17	21	20	1.1859316312824
17	22	21	1.1561963028041
17	23	22	1.1961132953829
17	24	23	1.1635478143548
17	25	24	1.1895758958173
17	26	25	1.1684730295377
17	27	26	1.1721130445089
17	28	27	1.1688633479162
17	29	28	1.1810216595161
17	30	29	1.1754990819841
17	31	30	1.1686021256832
17	32	31	1.172642713071
17	33	32	1.1956692378235
17	34	33	1.169986024914
17	35	34	1.1777035916077
17	36	35	1.1750925269701
17	37	36	1.1662670839731
17	38	37	1.1839989383558
17	39	38	1.1771759490206
17	40	39	1.1809434613089
17	41	40	1.1780565731974
17	42	41	1.1781647982322
17	43	42	1.1741037646368
17	44	43	1.1781872237506
17	45	44	1.1692795251679
17	46	45	1.1835217433143
17	47	46	1.1746558826203
17	48	47	1.1675503651578
17	49	48	1.1889045644779
17	50	49	1.1627286995026
17	51	50	1.1908508297991
17	52	51	1.1608878215163
17	53	52	1.1694914802744
17	54	53	1.171519923885
17	55	54	1.1917426609456
17	56	55	1.1714479309058
17	57	56	1.165125191721
17	58	57	1.1881011240293
17	59	58	1.168814516406
17	60	59	1.1795979019689
17	61	60	1.1698152688145
17	62	61	1.1685452421516
17	63	62	1.18178724547
17	64	63	1.1692687117931
17	65	64	1.1845394028351
17	66	65	1.1876055125327
17	67	66	1.1572761246553
17	68	67	1.1776734757202
17	69	68	1.1809621131579
17	70	69	1.1678944209032
17	71	70	1.1851716047925
17	72	71	1.181261289918
17	73	72	1.1734423244197
17	74	73	1.1726295564365
17	75	74	1.1645528605315
17	76	75	1.176869561752
17	77	76	1.1774004270864
17	78	77	1.1833677461883
17	79	78	1.1840486818592
17	80	79	1.1566721434677
17	81	80	1.177255214182
17	82	81	1.172242846853
17	83	82	1.1834101008698
17	84	83	1.1800611904323
17	85	84	1.1648163999418
17	86	85	1.1724727514699
17	87	86	1.1851595309151
17	88	87	1.1858184918953
17	89	88	1.1598776958071
17	90	89	1.1682844483413
17	91	90	1.182286705006
17	92	91	1.1760897208628
17	93	92	1.1902458203092
17	94	93	1.1581716201714
17	95	94	1.1751053805799
17	96	95	1.1725722511086
17	97	96	1.1729652354261
17	98	97	1.1969624159988
17	99	98	1.160728516407
17	100	99	1.191422209585
17	101	100	1.1773903008143
16	6	5	0.036875624096461
16	7	6	-0.044349218773682
16	8	7	0.0049599529463902
16	9	8	-0.018175891923925
16	10	9	0.011738054373483
16	11	10	0.0076931222348422
16	12	11	-0.025945782367166
16	13	12	-0.00076271574168141
16	14	13	0.026758323155162
16	15	14	0.0089903341560988
16	16	15	0.023795453614891
16	17	16	-0.042723945128576
16	18	17	0.033492752942645
16	19	18	-0.014336556648939
16	20	19	0.0013957804185338
16	21	20	0.026545310829533
16	22	21	-0.056573541304614
16	23	22	0.056969500211481
16	24	23	-0.036209113718036
16	25	24	0.037218354344885
16	26	25	-0.02295935476367
16	27	26	-0.010417870038913
16	28	27	-0.017938898397713
16	29	28	0.017042812816928
16	30	29	8.5547960932519e-005
16	31	30	-0.018554469053116
16	32	31	-0.0052152423207492
16	33	32	0.05584528118359
16	34	33	-0.018651390031058
16	35	34	0.0041640818623514
16	36	35	-0.0032689471845515
16	37	36	-0.026638795243343
16	38	37	0.024177677874428
16	39	38	0.0029783781469126
16	40	39	0.012455165722511
16	41	40	0.0032838780639901
16	42	41	0.0031417288604036
16	43	42	-0.0079055384331796
16	44	43	0.0038170038412013
16	45	44	-0.020257474049382
16	46	45	0.019891434429964
16	47	46	-0.0058949921286613
16	48	47	-0.024192681933831
16	49	48	0.03518068946303
16	50	49	-0.038582714445915
16	51	50	0.040642922168546
16	52	51	-0.043869265872571
16	53	52	-0.015211720245942
16	54	53	-0.00774926638567
16	55	54	0.046886345500954
16	56	55	-0.012850685695108
16	57	56	-0.028541431238409
16	58	57	0.036672419470657
16	59	58	-0.019390142681206
16	60	59	0.011973907530773
16	61	60	-0.015775297457973
16	62	61	-0.017317409947282
16	63	62	0.020705109103195
16	64	63	-0.015747795518514
16	65	64	0.027237912630274
16	66	65	0.031239580938644
16	67	66	-0.053730800540911
16	68	67	0.0084137886814359
16	69	68	0.015983681175082
16	70	69	-0.021131659806189
16	71	70	0.027729855323236
16	72	71	0.013673287612619
16	73	72	-0.0086533655444834
16	74	73	-0.0097456787221339
16	75	74	-0.030537227382107
16	76	75	0.0068381784755427
16	77	76	0.0073361982099918
16	78	77	0.022080838146697
16	79	78	0.020758332037884
16	80	79	-0.055326119682933
16	81	80	0.0076442639692686
16	82	81	-0.0068891551765977
16	83	82	0.023858309804281
16	84	83	0.01175072838022
16	85	84	-0.030667499021446
16	86	85	-0.0060146386224207
16	87	86	0.028590531130451
16	88	87	0.026197353290627
16	89	88	-0.046289947090877
16	90	89	-0.017788796475442
16	91	90	0.022381669631512
16	92	91	0.0028142966362388
16	93	92	0.039372974650986
16	94	93	-0.051090331221025
16	95	94	0.0013485614747171
16	96	95	-0.0056827117481995
16	97	96	-0.0038787916613121
16	98	97	0.059455329982383
16	99	98	-0.04399989943421
16	100	99	0.043038663037199
16	101	100	0.00087137070497412
13	5	4	1.3492918905589
13	6	5	1.3861675146553
13	7	6	1.3418182958816
13	8	7	1.346778248828
13	9	8	1.3286023569041
13	10	9	1.3403404112776
13	11	10	1.3480335335124
13	12	11	1.3220877511453
13	13	12	1.3213250354036
13	14	13	1.3480833585587
13	15	14	1.3570736927148
13	16	15	1.3808691463297
13	17	16	1.3381452012012
13	18	17	1.3716379541438
13	19	18	1.3573013974949
13	20	19	1.3586971779134
13	21	20	1.3852424887429
13	22	21	1.3286689474383
13	23	22	1.3856384476498
13	24	23	1.3494293339318
13	25	24	1.3866476882767
13	26	25	1.363688333513
13	27	26	1.3532704634741
13	28	27	1.3353315650764
13	29	28	1.3523743778933
13	30	29	1.3524599258542
13	31	30	1.3339054568011
13	32	31	1.3286902144804
13	33	32	1.3845354956639
13	34	33	1.3658841056329
13	35	34	1.3700481874952
13	36	35	1.3667792403107
13	37	36	1.3401404450673
13	38	37	1.3643181229418
13	39	38	1.3672965010887
13	40	39	1.3797516668112
13	41	40	1.3830355448752
13	42	41	1.3861772737356
13	43	42	1.3782717353024
13	44	43	1.3820887391436
13	45	44	1.3618312650942
13	46	45	1.3817226995242
13	47	46	1.3758277073955
13	48	47	1.3516350254617
13	49	48	1.3868157149247
13	50	49	1.3482330004788
13	51	50	1.3888759226474
13	52	51	1.3450066567748
13	53	52	1.3297949365288
13	54	53	1.3220456701432
13	55	54	1.3689320156441
13	56	55	1.356081329949
13	57	56	1.3275398987106
13	58	57	1.3642123181813
13	59	58	1.3448221755001
13	60	59	1.3567960830308
13	61	60	1.3410207855729
13	62	61	1.3237033756256
13	63	62	1.3444084847288
13	64	63	1.3286606892103
13	65	64	1.3558986018405
13	66	65	1.3871381827792
13	67	66	1.3334073822383
13	68	67	1.3418211709197
13	69	68	1.3578048520948
13	70	69	1.3366731922886
13	71	70	1.3644030476118
13	72	71	1.3780763352245
13	73	72	1.36942296968
13	74	73	1.3596772909578
13	75	74	1.3291400635757
13	76	75	1.3359782420513
13	77	76	1.3433144402613
13	78	77	1.365395278408
13	79	78	1.3861536104458
13	80	79	1.3308274907629
13	81	80	1.3384717547322
13	82	81	1.3315825995556
13	83	82	1.3554409093599
13	84	83	1.3671916377401
13	85	84	1.3365241387186
13	86	85	1.3305095000962
13	87	86	1.3591000312267
13	88	87	1.3852973845173
13	89	88	1.3390074374264
13	90	89	1.321218640951
13	91	90	1.3436003105825
13	92	91	1.3464146072187
13	93	92	1.3857875818697
13	94	93	1.3346972506487
13	95	94	1.3360458121234
13	96	95	1.3303631003752
13	97	96	1.3264843087139
13	98	97	1.3859396386963
13	99	98	1.3419397392621
13	100	99	1.3849784022993
13	101	100	1.3858497730042
4	4	3	2333.6777236458
4	5	4	2333.6777236458
4	6	5	2333.2590797323
4	7	6	2332.8379673686
4	8	7	2332.4168523319
4	9	8	2331.9963096613
4	10	9	2331.5818385479
4	11	10	2331.1610955487
4	12	11	2330.7421916699
4	13	12	2330.3230790704
4	14	13	2329.9052264008
4	15	14	2329.4862229323
4	16	15	2329.067571859
4	17	16	2328.6434172741
4	18	17	2328.2276958555
4	19	18	2327.8082972343
4	20	19	2327.3888826494
4	21	20	2326.9706832823
4	22	21	2326.5499006119
4	23	22	2326.1309430141
4	24	23	2325.7097990938
4	25	24	2325.2904549581
4	26	25	2324.868243964
4	27	26	2324.4472671094
4	28	27	2324.0284239226
4	29	28	2323.6130972597
4	30	29	2323.1947036697
4	31	30	2322.7769499749
4	32	31	2322.3599304683
4	33	32	2321.9417877422
4	34	33	2321.5226661495
4	35	34	2321.1062014531
4	36	35	2320.6893619885
4	37	36	2320.2704393743
4	38	37	2319.8548465525
4	39	38	2319.4366687909
4	40	39	2319.021794601
4	41	40	2318.603146029
4	42	41	2318.1811315522
4	43	42	2317.7598840518
4	44	43	2317.3384544725
4	45	44	2316.9163388197
4	46	45	2316.5010592796
4	47	46	2316.0828449778
4	48	47	2315.6641980595
4	49	48	2315.2468098911
4	50	49	2314.8270830345
4	51	50	2314.4103128654
4	52	51	2313.9916803535
4	53	52	2313.5736504218
4	54	53	2313.1584733708
4	55	54	2312.7428282634
4	56	55	2312.3236213544
4	57	56	2311.903521558
4	58	57	2311.4864116047
4	59	58	2311.0673339591
4	60	59	2310.6486437011
4	61	60	2310.2288789814
4	62	61	2309.8104499475
4	63	62	2309.3957536451
4	64	63	2308.9777075438
4	65	64	2308.557039875
4	66	65	2308.1392632141
4	67	66	2307.721970448
4	68	67	2307.3015929171
4	69	68	2306.886580062
4	70	69	2306.4707148171
4	71	70	2306.0535509702
4	72	71	2305.633771095
4	73	72	2305.2104585489
4	74	73	2304.7910276877
4	75	74	2304.3708812717
4	76	75	2303.9551722447
4	77	76	2303.5378443088
4	78	77	2303.1279505544
4	79	78	2302.7247246252
4	80	79	2302.321305925
4	81	80	2301.9203150128
4	82	81	2301.5169547227
4	83	82	2301.1166437216
4	84	83	2300.7147786443
4	85	84	2300.3123825313
4	86	85	2299.9090840531
4	87	86	2299.5120165072
4	88	87	2299.1094596844
4	89	88	2298.7044559136
4	90	89	2298.3034764365
4	91	90	2297.9008851965
4	92	91	2297.4983629886
4	93	92	2297.0951874006
4	94	93	2296.6921444154
4	95	94	2296.2905864369
4	96	95	2295.8918047527
4	97	96	2295.491145753
4	98	97	2295.0959140868
4	99	98	2294.7064112291
4	100	99	2294.3189288719
4	101	100	2293.93012224
3	4	3	2046.4576948395
3	5	4	2046.4576948395
3	6	5	2047.7409871911
3	7	6	2049.0318462199
3	8	7	2050.3227134419
3	9	8	2051.6118261587
3	10	9	2052.8823273953
3	11	10	2054.1720541904
3	12	11	2055.4561434282
3	13	12	2056.7408724689
3	14	13	2058.0217393767
3	15	14	2059.3061338922
3	16	15	2060.589448191
3	17	16	2061.8896327088
3	18	17	2063.1639665748
3	19	18	2064.4495723739
3	20	19	2065.735227107
3	21	20	2067.0171567661
3	22	21	2068.3070051675
3	23	22	2069.5912590727
3	24	23	2070.8822148338
3	25	24	2072.1676536151
3	26	25	2073.4618803362
3	27	26	2074.7523239813
3	28	27	2076.0362271764
3	29	28	2077.3093509762
3	30	29	2078.5918759972
3	31	30	2079.8724395121
3	32	31	2081.1507524794
3	33	32	2082.4325085135
3	34	33	2083.7172651217
3	35	34	2084.9938773984
3	36	35	2086.2716384731
3	37	36	2087.5557851413
3	38	37	2088.8297248128
3	39	38	2090.111588243
3	40	39	2091.3833250523
3	41	40	2092.6666316841
3	42	41	2093.9617957759
3	43	42	2095.2561744591
3	44	43	2096.5511126207
3	45	44	2097.8481588993
3	46	45	2099.1264220712
3	47	46	2100.4153704003
3	48	47	2101.7056520657
3	49	48	2102.9920542281
3	50	49	2104.2856642941
3	51	50	2105.5701617652
3	52	51	2106.8603990299
3	53	52	2108.148779125
3	54	53	2109.4283665611
3	55	54	2110.7093965604
3	56	55	2112.0014041328
3	57	56	2113.2961636099
3	58	57	2114.5817083056
3	59	58	2115.8733174847
3	60	59	2117.1637327245
3	61	60	2118.4574594855
3	62	61	2119.747069625
3	63	62	2121.0251753802
3	64	63	2122.3136053107
3	65	64	2123.6101149864
3	66	65	2124.8977144937
3	67	66	2126.1838226237
3	68	67	2127.4794380862
3	69	68	2128.7585194659
3	70	69	2130.0402279352
3	71	70	2131.3259387323
3	72	71	2132.619712203
3	73	72	2133.9243734655
3	74	73	2135.2170712653
3	75	74	2136.5119744252
3	76	75	2137.7932014264
3	77	76	2139.0794179506
3	78	77	2140.3693728449
3	79	78	2141.6653128961
3	80	79	2142.9618724998
3	81	80	2144.2506293617
3	82	81	2145.5470012393
3	83	82	2146.8335729146
3	84	83	2148.1251392826
3	85	84	2149.4184123621
3	86	85	2150.7145855805
3	87	86	2151.9907330167
3	88	87	2153.2845226063
3	89	88	2154.5861765166
3	90	89	2155.8748966271
3	91	90	2157.1687968313
3	92	91	2158.4624751709
3	93	92	2159.7582534289
3	94	93	2161.0536055106
3	95	94	2162.3441848845
3	96	95	2163.6258414415
3	97	96	2164.9135315599
3	98	97	2166.2086434201
3	99	98	2167.5103786239
3	100	99	2168.8053612285
3	101	100	2170.104769616
36	12	11	1.2284430355728
36	13	12	1.1931672933367
36	14	13	1.2058170845624
36	15	14	1.1783769499028
36	16	15	1.1841846572626
36	17	16	1.1711059140485
36	18	17	1.186271183273
36	19	18	1.1683197759923
36	20	19	1.1946773907991
36	21	20	1.1660127669515
36	22	21	1.1903095667553
36	23	22	1.1531377438898
36	24	23	1.1922139852682
36	25	24	1.1716176182457
36	26	25	1.1866367200158
36	27	26	1.1561256143268
36	28	27	1.1969824772619
36	29	28	1.1737749813782
36	30	29	1.1705101523726
36	31	30	1.18076920491
36	32	31	1.1566916469307
36	33	32	1.1872928810669
36	34	33	1.1795045432147
36	35	34	1.1778022418668
36	36	35	1.1787505490993
36	37	36	1.1643671776188
36	38	37	1.1809153389421
36	39	38	1.1686834933311
36	40	39	1.1699014888031
36	41	40	1.1925119399439
36	42	41	1.1565930638777
36	43	42	1.1838174466957
36	44	43	1.1690861246841
36	45	44	1.1780771497723
36	46	45	1.1718292800532
36	47	46	0.973
36	48	47	0.973
36	49	48	0.973
36	50	49	1.1186622115637
36	51	50	1.5392350301831
36	52	51	1.1834703146166
36	53	52	1.178760713082
36	54	53	1.1746648260105
36	55	54	1.1669740500472
36	56	55	1.1731739968581
36	57	56	1.1722099804059
36	58	57	1.1744074271646
36	59	58	1.1837979640328
36	60	59	1.1825236389202
36	61	60	1.1585951291767
36	62	61	1.1935940616671
36	63	62	1.1665113387728
36	64	63	1.1839492621226
36	65	64	1.1646651580621
36	66	65	1.1712729337498
36	67	66	1.1970472246682
36	68	67	1.1726500547382
36	69	68	1.1597515139344
36	70	69	1.1787005488448
36	71	70	1.1863116044358
36	72	71	1.1702772629647
36	73	72	1.1856751424897
36	74	73	1.1605833566659
36	75	74	1.1729195285414
36	76	75	1.1817443927635
36	77	76	1.1862268301332
36	78	77	1.1627262665516
36	79	78	1.1867112250013
36	80	79	1.1766387645609
36	81	80	1.1718655087865
36	82	81	0.973
36	83	82	0.973
36	84	83	1.3140751057253
36	85	84	1.2911874610266
36	86	85	1.1714977319314
36	87	86	1.190378507799
36	88	87	1.1603066345344
36	89	88	1.181685745145
36	90	89	1.1747830011664
36	91	90	1.166281326525
36	92	91	1.1843081037818
36	93	92	1.1747429578133
36	94	93	1.173930019575
36	95	94	1.1882952253443
36	96	95	1.1645149441335
36	97	96	1.1656109859496
36	98	97	1.1844970293117
36	99	98	1.1817845524272
36	100	99	1.1752405092748
36	101	100	1.1751588324546
35	12	11	0.27413987474966
35	13	12	0.10261130409454
35	14	13	0.1162466095586
35	15	14	0.021607048534098
35	16	15	0.034168903157939
35	17	16	-0.0063160889710183
35	18	17	0.035485812931167
35	19	18	-0.017700818157493
35	20	19	0.054481289617898
35	21	20	-0.028379109975908
35	22	21	0.039376449826199
35	23	22	-0.065384805558198
35	24	23	0.04818195759289
35	25	24	-0.012484468243356
35	26	25	0.028573132359371
35	27	26	-0.056822342723737
35	28	27	0.059118406918262
35	29	28	-0.0090032022207096
35	30	29	-0.016592025384037
35	31	30	0.012655379879613
35	32	31	-0.054165392618095
35	33	32	0.035559153738489
35	34	33	0.010146425469294
35	35	34	0.0043241019173164
35	36	35	0.0062442425405607
35	37	36	-0.033031478700003
35	38	37	0.01553428441081
35	39	38	-0.019207233122884
35	40	39	-0.01353236923346
35	41	40	0.048095132548242
35	42	41	-0.054440582793591
35	43	42	0.026506855760494
35	44	43	-0.01658256531098
35	45	44	0.0098811319751098
35	46	45	-0.0082637007128346
35	47	46	-0.22666467615019
35	48	47	-0.5694407628766
35	49	48	-0.32317842405346
35	50	49	-0.016842071458572
35	51	50	1.1361190278441
35	52	51	0.023932991866281
35	53	52	0.0082428710367013
35	54	53	-0.0036784598584443
35	55	54	-0.023988775291299
35	56	55	-0.0041304516910006
35	57	56	-0.0062178122203072
35	58	57	0.00056974916434327
35	59	58	0.025549327353171
35	60	59	0.018601389585658
35	61	60	-0.048386457686623
35	62	61	0.051524290724451
35	63	62	-0.026827062748554
35	64	63	0.023025101464656
35	65	64	-0.031445272874812
35	66	65	-0.0095882983522542
35	67	66	0.059214222548892
35	68	67	-0.012040410882845
35	69	68	-0.045721752863352
35	70	69	0.011511698507497
35	71	70	0.029872572243524
35	72	71	-0.016392986484182
35	73	72	0.026297578345596
35	74	73	-0.043995239975629
35	75	74	-0.0050037670654193
35	76	75	0.019263706797372
35	77	76	0.028208579978026
35	78	77	-0.037909962928905
35	79	78	0.030856006908127
35	80	79	0.00037211884369337
35	81	80	-0.012337932243503
35	82	81	-0.54760501276096
35	83	82	-0.45684466763899
35	84	83	0.6447100864638
35	85	84	0.35374895735589
35	86	85	-0.011063732672483
35	87	86	0.039997911080718
35	88	87	-0.04501514502206
35	89	88	0.018214467967886
35	90	89	-0.0025121592948887
35	91	90	-0.02524600535657
35	92	91	0.026449442472464
35	93	92	-0.0024508341448382
35	94	93	-0.0043118217985869
35	95	94	0.033917170836099
35	96	95	-0.033331682562777
35	97	96	-0.026513087650528
35	98	97	0.027848798118713
35	99	98	0.0167981041563
35	100	99	-0.0026583726867102
35	101	100	-0.0025356229646907
34	11	10	0.76114051347733
34	12	11	1.035280388227
34	13	12	1.1378916923215
34	14	13	1.2541383018801
34	15	14	1.2757453504142
34	16	15	1.3099142535722
34	17	16	1.3035981646011
34	18	17	1.3390839775323
34	19	18	1.3213831593748
34	20	19	1.3758644489927
34	21	20	1.3474853390168
34	22	21	1.386861788843
34	23	22	1.3214769832848
34	24	23	1.3696589408777
34	25	24	1.3571744726343
34	26	25	1.3857476049937
34	27	26	1.32892526227
34	28	27	1.3880436691882
34	29	28	1.3790404669675
34	30	29	1.3624484415835
34	31	30	1.3751038214631
34	32	31	1.320938428845
34	33	32	1.3564975825835
34	34	33	1.3666440080528
34	35	34	1.3709681099701
34	36	35	1.3772123525107
34	37	36	1.3441808738107
34	38	37	1.3597151582215
34	39	38	1.3405079250986
34	40	39	1.3269755558651
34	41	40	1.3750706884134
34	42	41	1.3206301056198
34	43	42	1.3471369613803
34	44	43	1.3305543960693
34	45	44	1.3404355280444
34	46	45	1.3321718273316
34	47	46	1.1055071511814
34	48	47	0.53606638830478
34	49	48	0.21288796425133
34	50	49	0.19604589279275
34	51	50	1.3321649206369
34	52	51	1.3560979125032
34	53	52	1.3643407835399
34	54	53	1.3606623236814
34	55	54	1.3366735483901
34	56	55	1.3325430966991
34	57	56	1.3263252844788
34	58	57	1.3268950336432
34	59	58	1.3524443609963
34	60	59	1.371045750582
34	61	60	1.3226592928954
34	62	61	1.3741835836198
34	63	62	1.3473565208713
34	64	63	1.3703816223359
34	65	64	1.3389363494611
34	66	65	1.3293480511089
34	67	66	1.3885622736578
34	68	67	1.3765218627749
34	69	68	1.3308001099116
34	70	69	1.3423118084191
34	71	70	1.3721843806626
34	72	71	1.3557913941784
34	73	72	1.382088972524
34	74	73	1.3380937325484
34	75	74	1.3330899654829
34	76	75	1.3523536722803
34	77	76	1.3805622522583
34	78	77	1.3426522893294
34	79	78	1.3735082962376
34	80	79	1.3738804150813
34	81	80	1.3615424828378
34	82	81	0.81393747007679
34	83	82	0.3570928024378
34	84	83	1.0018028889016
34	85	84	1.3555518462575
34	86	85	1.344488113585
34	87	86	1.3844860246657
34	88	87	1.3394708796437
34	89	88	1.3576853476116
34	90	89	1.3551731883167
34	91	90	1.3299271829601
34	92	91	1.3563766254326
34	93	92	1.3539257912877
34	94	93	1.3496139694891
34	95	94	1.3835311403252
34	96	95	1.3501994577625
34	97	96	1.3236863701119
34	98	97	1.3515351682306
34	99	98	1.3683332723869
34	100	99	1.3656748997002
34	101	100	1.3631392767355
28	10	9	2334.0244294719
28	11	10	2334.0244294719
28	12	11	2333.844668494
28	13	12	2333.5571589651
28	14	13	2333.2172005811
28	15	14	2332.8413953571
28	16	15	2332.4468161644
28	17	16	2332.0424560753
28	18	17	2331.6318095112
28	19	18	2331.2182765075
28	20	19	2330.8028377706
28	21	20	2330.3823590966
28	22	21	2329.9632218501
28	23	22	2329.5445143632
28	24	23	2329.1255661737
28	25	24	2328.7064752855
28	26	25	2328.2862358224
28	27	26	2327.8685345509
28	28	27	2327.4521393576
28	29	28	2327.0303718878
28	30	29	2326.6105382981
28	31	30	2326.1876583119
28	32	31	2325.767665695
28	33	32	2325.350570214
28	34	33	2324.9317574802
28	35	34	2324.5155891467
28	36	35	2324.0999223424
28	37	36	2323.682287013
28	38	37	2323.2632250625
28	39	38	2322.8460327946
28	40	39	2322.4285329985
28	41	40	2322.012638541
28	42	41	2321.5952937439
28	43	42	2321.1794738469
28	44	43	2320.759105164
28	45	44	2320.341387795
28	46	45	2319.924850445
28	47	46	2319.5068096922
28	48	47	2319.1022635821
28	49	48	2318.8654903026
28	50	49	2318.7617635236
28	51	50	2318.7014443312
28	52	51	2318.4164604483
28	53	52	2317.9985748703
28	54	53	2317.5800379351
28	55	54	2317.1649275109
28	56	55	2316.7442046306
28	57	56	2316.3243306979
28	58	57	2315.9078407034
28	59	58	2315.4904420188
28	60	59	2315.0724262178
28	61	60	2314.6504988196
28	62	61	2314.233463916
28	63	62	2313.8143847796
28	64	63	2313.3986810056
28	65	64	2312.9798011916
28	66	65	2312.5608977579
28	67	66	2312.1436884973
28	68	67	2311.7260004164
28	69	68	2311.3073936366
28	70	69	2310.8883334066
28	71	70	2310.4711884069
28	72	71	2310.053103865
28	73	72	2309.6366686603
28	74	73	2309.2180820646
28	75	74	2308.8027694145
28	76	75	2308.3884897008
28	77	76	2307.9706285127
28	78	77	2307.5518499655
28	79	78	2307.1325199147
28	80	79	2306.7140615558
28	81	80	2306.2941709838
28	82	81	2305.8727254801
28	83	82	2305.5326402968
28	84	83	2305.366412048
28	85	84	2305.1884704282
28	86	85	2304.782417969
28	87	86	2304.3629515213
28	88	87	2303.9414600951
28	89	88	2303.5239131962
28	90	89	2303.1164032573
28	91	90	2302.7120320152
28	92	91	2302.311868733
28	93	92	2301.9074942897
28	94	93	2301.5080001499
28	95	94	2301.1030090673
28	96	95	2300.6998556037
28	97	96	2300.2984630339
28	98	97	2299.9000266873
28	99	98	2299.4975971335
28	100	99	2299.0957517016
28	101	100	2298.6929603192
27	10	9	2045.3949182875
27	11	10	2045.3949182875
27	12	11	2045.9459495592
27	13	12	2046.827268426
27	14	13	2047.8693616705
27	15	14	2049.021338217
27	16	15	2050.2308636483
27	17	16	2051.4703710026
27	18	17	2052.7291486368
27	19	18	2053.9967742337
27	20	19	2055.27024158
27	21	20	2056.5591581245
27	22	21	2057.8439627171
27	23	22	2059.1274499438
27	24	23	2060.4116750095
27	25	24	2061.6963374972
27	26	25	2062.9845207753
27	27	26	2064.2649235942
27	28	27	2065.5413228194
27	29	28	2066.8341899811
27	30	29	2068.121129113
27	31	30	2069.4174065326
27	32	31	2070.7048331394
27	33	32	2071.983378995
27	34	33	2073.2671888409
27	35	34	2074.54289266
27	36	35	2075.8170591143
27	37	36	2077.097259797
27	38	37	2078.3818335805
27	39	38	2079.6606761226
27	40	39	2080.940461348
27	41	40	2082.21532564
27	42	41	2083.4946357379
27	43	42	2084.7692714755
27	44	43	2086.0578508583
27	45	44	2087.3383030217
27	46	45	2088.6151380076
27	47	46	2089.8965814573
27	48	47	2091.1366590323
27	49	48	2091.8624532665
27	50	49	2092.1804127015
27	51	50	2092.3653124593
27	52	51	2093.2388893237
27	53	52	2094.5227426714
27	54	53	2095.8087925267
27	55	54	2097.0843136484
27	56	55	2098.3770803168
27	57	56	2099.6711045678
27	58	57	2100.9547385332
27	59	58	2102.2411731068
27	60	59	2103.5295096509
27	61	60	2104.8299018483
27	62	61	2106.1152152388
27	63	62	2107.4068290125
27	64	63	2108.6880398238
27	65	64	2109.9790392805
27	66	65	2111.2701115336
27	67	66	2112.5559622972
27	68	67	2113.8432887986
27	69	68	2115.1334467561
27	70	69	2116.4250022598
27	71	70	2117.7106549696
27	72	71	2118.999203375
27	73	72	2120.2826684766
27	74	73	2121.572764226
27	75	74	2122.8527695822
27	76	75	2124.1295913993
27	77	76	2125.4174514222
27	78	77	2126.7081387716
27	79	78	2128.0005258706
27	80	79	2129.2902263905
27	81	80	2130.5843410319
27	82	81	2131.8832480171
27	83	82	2132.931400189
27	84	83	2133.4437203622
27	85	84	2133.9921414767
27	86	85	2135.2436066623
27	87	86	2136.5364141406
27	88	87	2137.8354626599
27	89	88	2139.1223540344
27	90	89	2140.4064850536
27	91	90	2141.7061060606
27	92	91	2142.9922029775
27	93	92	2144.2918342729
27	94	93	2145.5757806127
27	95	94	2146.877393744
27	96	95	2148.1731008957
27	97	96	2149.4631486571
27	98	97	2150.7436953235
27	99	98	2152.0370758794
27	100	99	2153.3285791082
27	101	100	2154.6231225561
39	13	12	1.2082907120054
39	14	13	1.1963757761332
39	15	14	1.1978202774439
39	16	15	1.2039315510382
39	17	16	1.1770456595548
39	18	17	1.1782785673251
39	19	18	1.1773396865208
39	20	19	1.1789265280221
39	21	20	1.1702312419638
39	22	21	1.1961931565504
39	23	22	1.1606185242024
39	24	23	1.1862589404286
39	25	24	1.1802052185621
39	26	25	1.1653060348457
39	27	26	1.1852129939323
39	28	27	1.1787637286908
39	29	28	1.1655762504671
39	30	29	1.1681623496263
39	31	30	1.1720566147535
39	32	31	1.1809928277714
39	33	32	1.18049721886
39	34	33	1.1726837634445
39	35	34	1.1846675205027
39	36	35	1.1795503148214
39	37	36	1.1677201973735
39	38	37	1.1578384511508
39	39	38	1.1878409935788
39	40	39	1.1728715381149
39	41	40	1.1922357254442
39	42	41	1.1609313332704
39	43	42	1.1755572151424
39	44	43	1.1748937811942
39	45	44	1.1699993284703
39	46	45	1.1938846731493
39	47	46	0.973
39	48	47	0.973
39	49	48	0.973
39	50	49	0.973
39	51	50	1.2676364911988
39	52	51	1.2348570904006
39	53	52	1.1939337145191
39	54	53	1.1758046762958
39	55	54	1.1898436914513
39	56	55	1.1884946378828
39	57	56	1.1870172098126
39	58	57	1.1640266425889
39	59	58	1.1751886266346
39	60	59	1.1903104573694
39	61	60	1.1559562952386
39	62	61	1.1822495441429
39	63	62	1.178505322568
39	64	63	1.1853527500001
39	65	64	1.1667768728024
39	66	65	1.1870501947914
39	67	66	1.1692395232072
39	68	67	1.1834230215197
39	69	68	1.1576303465556
39	70	69	1.1763941414335
39	71	70	1.1809960747228
39	72	71	1.1657231172345
39	73	72	1.1793184977116
39	74	73	1.1778545984904
39	75	74	1.18189904966
39	76	75	1.1606217802517
39	77	76	1.188591299145
39	78	77	1.1740542773575
39	79	78	1.1631888556994
39	80	79	1.1873780369471
39	81	80	1.1783610768261
39	82	81	0.973
39	83	82	0.973
39	84	83	1.1400524900049
39	85	84	1.264180624307
39	86	85	1.2135985092622
39	87	86	1.1938551571845
39	88	87	1.1667606630699
39	89	88	1.1809101373904
39	90	89	1.1867650804407
39	91	90	1.1649703899081
39	92	91	1.1746767595664
39	93	92	1.1738500343456
39	94	93	1.1925106355743
39	95	94	1.159762918222
39	96	95	1.1886552820323
39	97	96	1.1777051738781
39	98	97	1.165368725345
39	99	98	1.1808070358297
39	100	99	1.1703185790089
39	101	100	1.1896118974977
38	13	12	0.24035971776334
38	14	13	0.13688123297576
38	15	14	0.11017900664267
38	16	15	0.10449808524039
38	17	16	0.014632161378653
38	18	17	0.015908067012175
38	19	18	0.01111462652738
38	20	19	0.013841061110611
38	21	20	-0.011584854536903
38	22	21	0.058449689987176
38	23	22	-0.043575111755408
38	24	23	0.030729752164351
38	25	24	0.010678647837141
38	26	25	-0.030423928075006
38	27	26	0.02643321198409
38	28	27	0.0060264672286814
38	29	28	-0.029916690004119
38	30	29	-0.019340103695284
38	31	30	-0.006264449812075
38	32	31	0.018643029729396
38	33	32	0.014729171768219
38	34	33	-0.0080185788891167
38	35	34	0.02469328501853
38	36	35	0.008007049093459
38	37	36	-0.024385479633758
38	38	37	-0.049063293928464
38	39	38	0.038936246153382
38	40	39	-0.0062669615413553
38	41	40	0.045299231578984
38	42	41	-0.043441983176651
38	43	42	0.0015303508876565
38	44	43	-0.00045021408974821
38	45	44	-0.013649765880675
38	46	45	0.051128979054435
38	47	46	-0.11197544946168
38	48	47	-0.33808138795549
38	49	48	-0.33240374592567
38	50	49	-0.23418210832897
38	51	50	0.53044801315709
38	52	51	0.25132285992018
38	53	52	0.082662892291045
38	54	53	0.018190646749987
38	55	54	0.05385278609866
38	56	55	0.041726759507016
38	57	56	0.031646866947868
38	58	57	-0.033640064993266
38	59	58	0.00078751454970583
38	60	59	0.040278991606707
38	61	60	-0.056901835374043
38	62	61	0.021769138175942
38	63	62	0.0088450033529959
38	64	63	0.025517709179234
38	65	64	-0.026882650967713
38	66	65	0.030079904649432
38	67	66	-0.020607153015185
38	68	67	0.019399838315116
38	69	68	-0.052315510579825
38	70	69	0.005360734923872
38	71	70	0.016884317317615
38	72	71	-0.026515428871763
38	73	72	0.013773623629957
38	74	73	0.0079879138502292
38	75	74	0.017570875171156
38	76	75	-0.042136187275185
38	77	76	0.038538486976191
38	78	77	-0.0050192452747271
38	79	78	-0.034024155968546
38	80	79	0.035466798679623
38	81	80	0.0068682812464733
38	82	81	-0.20426585016147
38	83	82	-0.37848680054321
38	84	83	-0.033844821885348
38	85	84	0.37078389559022
38	86	85	0.14040079552379
38	87	86	0.062306719112488
38	88	87	-0.019966596463255
38	89	88	0.021435928760886
38	90	89	0.033768382059485
38	91	90	-0.029134318530042
38	92	91	0.0010277182152185
38	93	92	-0.0013488910379595
38	94	93	0.04792556888567
38	95	94	-0.045632973455617
38	96	95	0.037685712434015
38	97	96	0.0038870587983788
38	98	97	-0.029689482261246
38	99	98	0.015518627155365
38	100	99	-0.014526270274978
38	101	100	0.038227738194918
37	12	11	0.68476629619035
37	13	12	0.92512601395369
37	14	13	1.0620072469295
37	15	14	1.1721862535721
37	16	15	1.2766843388125
37	17	16	1.2913165001912
37	18	17	1.3072245672033
37	19	18	1.3183391937307
37	20	19	1.3321802548413
37	21	20	1.3205954003044
37	22	21	1.3790450902916
37	23	22	1.3354699785362
37	24	23	1.3661997307005
37	25	24	1.3768783785377
37	26	25	1.3464544504627
37	27	26	1.3728876624468
37	28	27	1.3789141296755
37	29	28	1.3489974396713
37	30	29	1.3296573359761
37	31	30	1.323392886164
37	32	31	1.3420359158934
37	33	32	1.3567650876616
37	34	33	1.3487465087725
37	35	34	1.373439793791
37	36	35	1.3814468428845
37	37	36	1.3570613632507
37	38	37	1.3079980693222
37	39	38	1.3469343154756
37	40	39	1.3406673539343
37	41	40	1.3859665855133
37	42	41	1.3425246023366
37	43	42	1.3440549532243
37	44	43	1.3436047391345
37	45	44	1.3299549732538
37	46	45	1.3810839523083
37	47	46	1.2691085028466
37	48	47	0.9310271148911
37	49	48	0.59862336896543
37	50	49	0.36444126063646
37	51	50	0.89488927379355
37	52	51	1.1462121337137
37	53	52	1.2288750260048
37	54	53	1.2470656727548
37	55	54	1.3009184588534
37	56	55	1.3426452183604
37	57	56	1.3742920853083
37	58	57	1.340652020315
37	59	58	1.3414395348648
37	60	59	1.3817185264715
37	61	60	1.3248166910974
37	62	61	1.3465858292734
37	63	62	1.3554308326264
37	64	63	1.3809485418056
37	65	64	1.3540658908379
37	66	65	1.3841457954873
37	67	66	1.3635386424721
37	68	67	1.3829384807872
37	69	68	1.3306229702074
37	70	69	1.3359837051313
37	71	70	1.3528680224489
37	72	71	1.3263525935771
37	73	72	1.3401262172071
37	74	73	1.3481141310573
37	75	74	1.3656850062285
37	76	75	1.3235488189533
37	77	76	1.3620873059295
37	78	77	1.3570680606548
37	79	78	1.3230439046862
37	80	79	1.3585107033658
37	81	80	1.3653789846123
37	82	81	1.1611131344508
37	83	82	0.78262633390763
37	84	83	0.74878151202228
37	85	84	1.1195654076125
37	86	85	1.2599662031363
37	87	86	1.3222729222488
37	88	87	1.3023063257855
37	89	88	1.3237422545464
37	90	89	1.3575106366059
37	91	90	1.3283763180758
37	92	91	1.3294040362911
37	93	92	1.3280551452531
37	94	93	1.3759807141388
37	95	94	1.3303477406832
37	96	95	1.3680334531172
37	97	96	1.3719205119156
37	98	97	1.3422310296543
37	99	98	1.3577496568097
37	100	99	1.3432233865347
37	101	100	1.3814511247296
31	11	10	2334.040321268
31	12	11	2334.040321268
31	13	12	2333.889330734
31	14	13	2333.6359025196
31	15	14	2333.3186757916
31	16	15	2332.9615531059
31	17	16	2332.580303038
31	18	17	2332.1847284065
31	19	18	2331.7808308752
31	20	19	2331.3705592497
31	21	20	2330.9583155609
31	22	21	2330.5430897495
31	23	22	2330.1230891079
31	24	23	2329.7021248943
31	25	24	2329.283717558
31	26	25	2328.8650217038
31	27	26	2328.4480854492
31	28	27	2328.0280128946
31	29	28	2327.6072581824
31	30	29	2327.1887140423
31	31	30	2326.7683708095
31	32	31	2326.3519254373
31	33	32	2325.9344347453
31	34	33	2325.513813663
31	35	34	2325.0970895142
31	36	35	2324.6782069703
31	37	36	2324.2616644756
31	38	37	2323.8445134132
31	39	38	2323.4280917886
31	40	39	2323.01024036
31	41	40	2322.5934086071
31	42	41	2322.174769012
31	43	42	2321.7604541301
31	44	43	2321.3436172852
31	45	44	2320.9235335299
31	46	45	2320.5081736478
31	47	46	2320.0878621822
31	48	47	2319.6731573158
31	49	48	2319.3357669946
31	50	49	2319.103563526
31	51	50	2318.962109662
31	52	51	2318.7869228915
31	53	52	2318.4698530173
31	54	53	2318.1042044946
31	55	54	2317.7131309501
31	56	55	2317.3090982028
31	57	56	2316.8974080801
31	58	57	2316.4825620732
31	59	58	2316.0670142369
31	60	59	2315.6516079673
31	61	60	2315.2325203159
31	62	61	2314.8163814202
31	63	62	2314.4001642759
31	64	63	2313.9818352182
31	65	64	2313.5630231431
31	66	65	2313.1472085091
31	67	66	2312.7276041178
31	68	67	2312.309105512
31	69	68	2311.8890998263
31	70	69	2311.472834657
31	71	70	2311.0555715011
31	72	71	2310.6345825703
31	73	72	2310.2144002686
31	74	73	2309.8000003641
31	75	74	2309.3822651853
31	76	75	2308.9657978445
31	77	76	2308.5533128462
31	78	77	2308.1374517925
31	79	78	2307.7193225496
31	80	79	2307.2981348427
31	81	80	2306.8805666087
31	82	81	2306.4622802727
31	83	82	2306.0681429145
31	84	83	2305.7765390697
31	85	84	2305.5636234339
31	86	85	2305.2530552834
31	87	86	2304.8834743024
31	88	87	2304.4904345905
31	89	88	2304.0865103665
31	90	89	2303.6778003459
31	91	90	2303.2643074089
31	92	91	2302.8655646741
31	93	92	2302.4649645731
31	94	93	2302.0674336984
31	95	94	2301.6630997878
31	96	95	2301.2630366772
31	97	96	2300.8612929609
31	98	97	2300.4596074548
31	99	98	2300.0555561671
31	100	99	2299.6569224315
31	101	100	2299.255514953
30	11	10	2045.3462042859
30	12	11	2045.3462042859
30	13	12	2045.8090439238
30	14	13	2046.5858914517
30	15	14	2047.558304093
30	16	15	2048.6530120212
30	17	16	2049.8216789487
30	18	17	2051.0342557541
30	19	18	2052.2723452041
30	20	19	2053.5299735182
30	21	20	2054.793646907
30	22	21	2056.0664615609
30	23	22	2057.3539127663
30	24	23	2058.6443176621
30	25	24	2059.9268848207
30	26	25	2061.210336389
30	27	26	2062.4883941592
30	28	27	2063.7760658034
30	29	28	2065.065828503
30	30	29	2066.3488150136
30	31	30	2067.6373163829
30	32	31	2068.913869424
30	33	32	2070.1936267421
30	34	33	2071.4829798187
30	35	34	2072.7603874093
30	36	35	2074.0444112477
30	37	36	2075.3212620041
30	38	37	2076.5999782367
30	39	38	2077.8764584831
30	40	39	2079.157321587
30	41	40	2080.4350590223
30	42	41	2081.7183381365
30	43	42	2082.988360468
30	44	43	2084.2661135122
30	45	44	2085.5538194906
30	46	45	2086.827045119
30	47	46	2088.1154491103
30	48	47	2089.3866668829
30	49	48	2090.4208881021
30	50	49	2091.1326742424
30	51	50	2091.5662805982
30	52	51	2092.1032902991
30	53	52	2093.0752221277
30	54	53	2094.198171644
30	55	54	2095.3998339898
30	56	55	2096.6413164313
30	57	56	2097.9063278994
30	58	57	2099.1834309855
30	59	58	2100.4641611923
30	60	59	2101.7444550867
30	61	60	2103.0360951041
30	62	61	2104.3186469726
30	63	62	2105.6014400058
30	64	63	2106.8907420158
30	65	64	2108.1815326992
30	66	65	2109.463085184
30	67	66	2110.7563178084
30	68	67	2112.0461423706
30	69	68	2113.3406117955
30	70	69	2114.6235528432
30	71	70	2115.9095697135
30	72	71	2117.2070695279
30	73	72	2118.5020832885
30	74	73	2119.7792755369
30	75	74	2121.0667471956
30	76	75	2122.3503113414
30	77	76	2123.6216017948
30	78	77	2124.9032973465
30	79	78	2126.1919835217
30	80	79	2127.4900959694
30	81	80	2128.7770530992
30	82	81	2130.0662234399
30	83	82	2131.2809659465
30	84	83	2132.1796972594
30	85	84	2132.8359092825
30	86	85	2133.7930891227
30	87	86	2134.9321481792
30	88	87	2136.1435077089
30	89	88	2137.3884136133
30	90	89	2138.6480694783
30	91	90	2139.9311314121
30	92	91	2141.2126627886
30	93	92	2142.5001636107
30	94	93	2143.7778001534
30	95	94	2145.0773011797
30	96	95	2146.3630761519
30	97	96	2147.6542524739
30	98	97	2148.9452417125
30	99	98	2150.2438344083
30	100	99	2151.5250154688
30	101	100	2152.815111146
49	22	21	1.2034098862947
49	23	22	1.2079307687545
49	24	23	1.1826744054379
49	25	24	1.2055669796859
49	26	25	1.1669456474024
49	27	26	1.1877525977952
49	28	27	1.1805735262167
49	29	28	1.1718162873145
49	30	29	1.1624480330395
49	31	30	1.1787378935331
49	32	31	1.1775235318726
49	33	32	1.1756632728941
49	34	33	1.1831412448415
49	35	34	1.1843797827954
49	36	35	1.1570122847068
49	37	36	1.1755205471018
49	38	37	1.1706906729228
49	39	38	1.1801245857318
49	40	39	1.1863583437835
49	41	40	1.1661628811548
49	42	41	1.1894410462771
49	43	42	1.1765347759831
49	44	43	1.1572363714795
49	45	44	1.1735466992764
49	46	45	1.1984082192661
49	47	46	1.1643743383877
49	48	47	1.1638293694163
49	49	48	0.973
49	50	49	0.973
49	51	50	0.973
49	52	51	1.1504063599622
49	53	52	1.182733070331
49	54	53	1.1866273523701
49	55	54	1.1883869322008
49	56	55	0.973
49	57	56	0.973
49	58	57	1.1166259108534
49	59	58	0.973
49	60	59	0.973
49	61	60	0.973
49	62	61	1.3360622049336
49	63	62	1.3172600830821
49	64	63	1.1736855900768
49	65	64	1.1958327687093
49	66	65	1.1592352955346
49	67	66	1.1873767771388
49	68	67	1.1846571032315
49	69	68	1.1627747392664
49	70	69	1.1876664938395
49	71	70	1.1598763835218
49	72	71	1.1890964161194
49	73	72	1.1575443356168
49	74	73	1.1942645848585
49	75	74	1.1671772147466
49	76	75	1.1700138016148
49	77	76	1.1742349280858
49	78	77	1.1843840532518
49	79	78	1.1818594306192
49	80	79	1.1689721194003
49	81	80	1.1639199750372
49	82	81	1.1784436576291
49	83	82	1.1808268877417
49	84	83	1.1809840581853
49	85	84	1.179905645528
49	86	85	1.1587480145362
49	87	86	1.1812231345801
49	88	87	1.1727747406401
49	89	88	1.1679731435175
49	90	89	1.1970433345816
49	91	90	1.1700154214491
49	92	91	1.1704629570971
49	93	92	1.1847924874848
49	94	93	1.172875457742
49	95	94	1.1823045019399
49	96	95	1.1616341641852
49	97	96	1.1708180642594
49	98	97	1.1935678546577
49	99	98	1.1583854761803
49	100	99	1.1633200230011
49	101	100	0.973
48	22	21	0.16206935300866
48	23	22	0.13645273599823
48	24	23	0.041187592321443
48	25	24	0.094815075132854
48	26	25	-0.02174765112616
48	27	26	0.036982335273703
48	28	27	0.012963443334091
48	29	28	-0.01191560998508
48	30	29	-0.036130981510117
48	31	30	0.012921006095389
48	32	31	0.0079002506875745
48	33	32	0.0018653716284056
48	34	33	0.021392207644466
48	35	34	0.02161133085287
48	36	35	-0.054456991153226
48	37	36	0.0027518590892819
48	38	37	-0.010719530627183
48	39	38	0.016167596572042
48	40	39	0.030219553660599
48	41	40	-0.027407924185624
48	42	41	0.037740259210682
48	43	42	-0.00089858347103022
48	44	43	-0.053165125690747
48	45	44	-0.001888756163833
48	46	45	0.063270017877524
48	47	46	-0.034279154642718
48	48	47	-0.03193354506593
48	49	48	-0.19008882760471
48	50	49	-0.17670564084067
48	51	50	-0.20273554764093
48	52	51	0.017298575725875
48	53	52	0.13349025469633
48	54	53	0.11237426200043
48	55	54	0.092715646935061
48	56	55	-0.50860716943126
48	57	56	-0.35258284399233
48	58	57	-0.056377788673106
48	59	58	-0.19118905304931
48	60	59	0
48	61	60	0
48	62	61	0.87345623509051
48	63	62	0.44931419815443
48	64	63	-0.00092206340114998
48	65	64	0.057338607940538
48	66	65	-0.047441266490043
48	67	66	0.034173386407524
48	68	67	0.022252574870234
48	69	68	-0.038603134711997
48	70	69	0.032311577540693
48	71	70	-0.045936419111159
48	72	71	0.037987661570595
48	73	72	-0.051640966428547
48	74	73	0.053289251857981
48	75	74	-0.025176779502848
48	76	75	-0.014451200355931
48	77	76	-0.0011652922128431
48	78	77	0.025948435294494
48	79	78	0.015729399666371
48	80	79	-0.020421118161822
48	81	80	-0.031875797754361
48	82	81	0.011738691488669
48	83	82	0.016448438529753
48	84	83	0.014590707820995
48	85	84	0.0097968645342108
48	86	85	-0.048549549764074
48	87	86	0.018576349377529
48	88	87	-0.0065072987571411
48	89	88	-0.01880015489102
48	90	89	0.060459679726692
48	91	90	-0.018262236618385
48	92	91	-0.014858318641523
48	93	92	0.025009547922916
48	94	93	-0.0096328793410472
48	95	94	0.016415008641262
48	96	95	-0.040926243252923
48	97	96	-0.010921284152169
48	98	97	0.050511740733378
48	99	98	-0.049824352026917
48	100	99	-0.030486212531947
48	101	100	-0.63706772188081
47	21	20	0.90664199710845
47	22	21	1.0687113501171
47	23	22	1.2051640861153
47	24	23	1.2463516784368
47	25	24	1.3411667535696
47	26	25	1.3194191024435
47	27	26	1.3564014377172
47	28	27	1.3693648810513
47	29	28	1.3574492710662
47	30	29	1.3213182895561
47	31	30	1.3342392956515
47	32	31	1.342139546339
47	33	32	1.3440049179674
47	34	33	1.3653971256119
47	35	34	1.3870084564648
47	36	35	1.3325514653116
47	37	36	1.3353033244008
47	38	37	1.3245837937737
47	39	38	1.3407513903457
47	40	39	1.3709709440063
47	41	40	1.3435630198207
47	42	41	1.3813032790314
47	43	42	1.3804046955603
47	44	43	1.3272395698696
47	45	44	1.3253508137057
47	46	45	1.3886208315833
47	47	46	1.3543416769405
47	48	47	1.3224081318746
47	49	48	1.1323193042699
47	50	49	0.95561366342924
47	51	50	0.75287811578831
47	52	51	0.77017669151418
47	53	52	0.90366694621051
47	54	53	1.0160412082109
47	55	54	1.108756855146
47	56	55	0.60014968571474
47	57	56	0.24756684172242
47	58	57	0.19118905304931
47	59	58	0
47	60	59	0
47	61	60	0
47	62	61	0.87345623509051
47	63	62	1.3227704332449
47	64	63	1.3218483698438
47	65	64	1.3791869777843
47	66	65	1.3317457112943
47	67	66	1.3659190977018
47	68	67	1.388171672572
47	69	68	1.34956853786
47	70	69	1.3818801154007
47	71	70	1.3359436962896
47	72	71	1.3739313578602
47	73	72	1.3222903914316
47	74	73	1.3755796432896
47	75	74	1.3504028637868
47	76	75	1.3359516634308
47	77	76	1.334786371218
47	78	77	1.3607348065125
47	79	78	1.3764642061789
47	80	79	1.356043088017
47	81	80	1.3241672902627
47	82	81	1.3359059817513
47	83	82	1.3523544202811
47	84	83	1.3669451281021
47	85	84	1.3767419926363
47	86	85	1.3281924428722
47	87	86	1.3467687922498
47	88	87	1.3402614934926
47	89	88	1.3214613386016
47	90	89	1.3819210183283
47	91	90	1.3636587817099
47	92	91	1.3488004630684
47	93	92	1.3738100109913
47	94	93	1.3641771316502
47	95	94	1.3805921402915
47	96	95	1.3396658970386
47	97	96	1.3287446128864
47	98	97	1.3792563536198
47	99	98	1.3294320015929
47	100	99	1.2989457890609
47	101	100	0.66187806718012
43	20	19	2333.9528749984
43	21	20	2333.9528749984
43	22	21	2333.7147735859
43	23	22	2333.3998841784
43	24	23	2333.0409174139
43	25	24	2332.6539472839
43	26	25	2332.2530832412
43	27	26	2331.8454286783
43	28	27	2331.4315726367
43	29	28	2331.0179631801
43	30	29	2330.6016585287
43	31	30	2330.1860062117
43	32	31	2329.7703154978
43	33	32	2329.3506447707
43	34	33	2328.9319364763
43	35	34	2328.5156859694
43	36	35	2328.0966381143
43	37	36	2327.6792450673
43	38	37	2327.2609105832
43	39	38	2326.841985304
43	40	39	2326.4235617429
43	41	40	2326.0038083611
43	42	41	2325.5886552517
43	43	42	2325.1706200935
43	44	43	2324.7506296092
43	45	44	2324.3355503172
43	46	45	2323.9188475931
43	47	46	2323.5003043674
43	48	47	2323.0834528143
43	49	48	2322.6710188906
43	50	49	2322.2923802318
43	51	50	2321.9669454387
43	52	51	2321.7126274055
43	53	52	2321.4829716822
43	54	53	2321.223782137
43	55	54	2320.9236265671
43	56	55	2320.589959616
43	57	56	2320.3263474764
43	58	57	2320.20791547
43	59	58	2320.1466409818
43	60	59	2320.1360579101
43	61	60	2320.1360579101
43	62	61	2320.1360579101
43	63	62	2320.0163410865
43	64	63	2319.6199382051
43	65	64	2319.1995973772
43	66	65	2318.7861331655
43	67	66	2318.3704779246
43	68	67	2317.9526119731
43	69	68	2317.5310745243
43	70	69	2317.1130129055
43	71	70	2316.6931191964
43	72	71	2316.2733421756
43	73	72	2315.8549816881
43	74	73	2315.4385223585
43	75	74	2315.0192007041
43	76	75	2314.6048160743
43	77	76	2314.1852462946
43	78	77	2313.7702269614
43	79	78	2313.3531579656
43	80	79	2312.9338100073
43	81	80	2312.5154625479
43	82	81	2312.0988063798
43	83	82	2311.6827269784
43	84	83	2311.263665363
43	85	84	2310.8443100188
43	86	85	2310.4236453665
43	87	86	2310.0039603645
43	88	87	2309.5869022091
43	89	88	2309.1647482611
43	90	89	2308.748763651
43	91	90	2308.3324403894
43	92	91	2307.9125544971
43	93	92	2307.4999478401
43	94	93	2307.0783731124
43	95	94	2306.655699463
43	96	95	2306.2345892409
43	97	96	2305.8166697512
43	98	97	2305.3993240478
43	99	98	2304.978966621
43	100	99	2304.5606317921
43	101	100	2304.1397158051
42	20	19	2045.6142581743
42	21	20	2045.6142581743
42	22	21	2046.3441236082
42	23	22	2047.3093715318
42	24	23	2048.4097322166
42	25	24	2049.5959331672
42	26	25	2050.8247238972
42	27	26	2052.0743299842
42	28	27	2053.3429458072
42	29	28	2054.6108057595
42	30	29	2055.8869274416
42	31	30	2057.161049487
42	32	31	2058.4352892324
42	33	32	2059.7217291326
42	34	33	2061.0052188343
42	35	34	2062.2811745444
42	36	35	2063.5657051204
42	37	36	2064.8451631217
42	38	37	2066.1275069623
42	39	38	2067.4116617996
42	40	39	2068.6942786929
42	41	40	2069.9809719592
42	42	41	2071.2535637556
42	43	42	2072.5349900561
42	44	43	2073.8224101257
42	45	44	2075.0947756457
42	46	45	2076.372117562
42	47	46	2077.6551012696
42	48	47	2078.9328993998
42	49	48	2080.197155926
42	50	49	2081.357817957
42	51	50	2082.3553912345
42	52	51	2083.1349663731
42	53	52	2083.8389427684
42	54	53	2084.6334508223
42	55	54	2085.5535342983
42	56	55	2086.5763420655
42	57	56	2087.3844069425
42	58	57	2087.7474431247
42	59	58	2087.9352712037
42	60	59	2087.9677120788
42	61	60	2087.9677120788
42	62	61	2087.9677120788
42	63	62	2088.3346866821
42	64	63	2089.5498023676
42	65	64	2090.8382963647
42	66	65	2092.1057110897
42	67	66	2093.3799860134
42	68	67	2094.6639741192
42	69	68	2095.9592437344
42	70	69	2097.2438330723
42	71	70	2098.5344879651
42	72	71	2099.8282526386
42	73	72	2101.1176515161
42	74	73	2102.4011909711
42	75	74	2103.6935521923
42	76	75	2104.9706973638
42	77	76	2106.2638233141
42	78	77	2107.5429246595
42	79	78	2108.8283431231
42	80	79	2110.1207854137
42	81	80	2111.4101441385
42	82	81	2112.6942902551
42	83	82	2113.9766587608
42	84	83	2115.2682185346
42	85	84	2116.5606835887
42	86	85	2117.8571839673
42	87	86	2119.150665036
42	88	87	2120.4360500892
42	89	88	2121.7371405197
42	90	89	2123.0192168757
42	91	90	2124.3023369655
42	92	91	2125.5964371837
42	93	92	2126.8681025929
42	94	93	2128.1674078496
42	95	94	2129.4701000145
42	96	95	2130.7679736521
42	97	96	2132.0560133618
42	98	97	2133.3422846461
42	99	98	2134.6378381473
42	100	99	2135.9271579442
42	101	100	2137.2244329438
33	11	10	1.2313997057886
33	12	11	1.1998520301137
33	13	12	1.1877544163636
33	14	13	1.1879361823711
33	15	14	1.1693753324306
33	16	15	1.166875850032
33	17	16	1.1919944949809
33	18	17	1.1587679921479
33	19	18	1.1798792801435
33	20	19	1.1638697569809
33	21	20	1.1763300868429
33	22	21	1.1735476358897
33	23	22	1.1832565292858
33	24	23	1.1851062334206
33	25	24	1.1768392547163
33	26	25	1.1751753112601
33	27	26	1.1847900780815
33	28	27	1.1656226274744
33	29	28	1.1853570330197
33	30	29	1.1692584273461
33	31	30	1.1798019980047
33	32	31	1.1737302578757
33	33	32	1.1702920734456
33	34	33	1.1746064770817
33	35	34	1.1699279122568
33	36	35	1.1791202034621
33	37	36	1.1662094412033
33	38	37	1.1773522250387
33	39	38	1.1868571477783
33	40	39	1.1694959567801
33	41	40	1.1686115080973
33	42	41	1.19027011314
33	43	42	1.1593050071232
33	44	43	1.195858108855
33	45	44	1.1742100232726
33	46	45	1.1631555396442
33	47	46	1.1919694842386
33	48	47	1.1543422140886
33	49	48	1.1896510876596
33	50	49	1.1768173032114
33	51	50	1.1740512075338
33	52	51	1.161856106558
33	53	52	1.1707722333449
33	54	53	1.1863580557259
33	55	54	1.1925088566022
33	56	55	1.1741391366524
33	57	56	1.1649663579525
33	58	57	1.1747429880955
33	59	58	1.1883312048327
33	60	59	1.171219439431
33	61	60	1.168219336857
33	62	61	1.1839234389976
33	63	62	1.1799093431494
33	64	63	1.1614447208893
33	65	64	1.1815595058634
33	66	65	1.1706581053121
33	67	66	1.1729813758686
33	68	67	1.185986789319
33	69	68	1.1757079093923
33	70	69	1.1627794821332
33	71	70	1.1851165326188
33	72	71	1.1756076342038
33	73	72	1.1698518675993
33	74	73	1.168604938206
33	75	74	1.1926019914996
33	76	75	1.1770710393354
33	77	76	1.1790893918871
33	78	77	0.973
33	79	78	0.973
33	80	79	0.973
33	81	80	0.973
33	82	81	0.973
33	83	82	0.973
33	84	83	2.4188624945737
33	85	84	2.9509624652188
33	86	85	0.973
33	87	86	0.973
33	88	87	0.973
33	89	88	0.973
33	90	89	1.149078376579
33	91	90	1.1817154299471
33	92	91	1.154753374277
33	93	92	1.1704842361096
33	94	93	1.190892435587
33	95	94	1.1662574668972
33	96	95	1.1775256350254
33	97	96	1.1786676610046
33	98	97	1.1753076989482
33	99	98	1.1794715577911
33	100	99	1.1806045493583
33	101	100	1.1679136911103
32	11	10	0.21744667676096
32	12	11	0.087692853162277
32	13	12	0.04111098588413
32	14	13	0.035372616681145
32	15	14	-0.018418757290871
32	16	15	-0.023041601171274
32	17	16	0.046718363230869
32	18	17	-0.048214082085612
32	19	18	0.01533943294683
32	20	19	-0.030307292499458
32	21	20	0.007872804621089
32	22	21	-0.00076521911094996
32	23	22	0.025412485881579
32	24	23	0.026594714504086
32	25	24	0.0013544925747808
32	26	25	-0.0032136440345076
32	27	26	0.022287412805712
32	28	27	-0.031084920191915
32	29	28	0.024977961445975
32	30	29	-0.020575151080316
32	31	30	0.0099557364051781
32	32	31	-0.0073424646149731
32	33	32	-0.015646415529107
32	34	33	-0.0020836489061873
32	35	34	-0.014464593958062
32	36	35	0.012169044939715
32	37	36	-0.024399625819834
32	38	37	0.0091188802736233
32	39	38	0.032930886537078
32	40	39	-0.017512022071696
32	41	40	-0.017799621195736
32	42	41	0.042097599006834
32	43	42	-0.046363412401903
32	44	43	0.05700039611029
32	45	44	-0.0070312619134711
32	46	45	-0.036046274853132
32	47	46	0.04497934521484
32	48	47	-0.061623291062575
32	49	48	0.041562104092516
32	50	49	0.0021729470339835
32	51	50	-0.0054476425175911
32	52	51	-0.038061497495813
32	53	52	-0.0087884988979834
32	54	53	0.034287168341125
32	55	54	0.044974388252234
32	56	55	-0.0085753403630504
32	57	56	-0.032128969501838
32	58	57	-0.0018430973605505
32	59	58	0.033979130124444
32	60	59	-0.015267176245031
32	61	60	-0.021520837127469
32	62	61	0.023006589336148
32	63	62	0.0093968159929574
32	64	63	-0.041323923286668
32	65	64	0.018075134935948
32	66	65	-0.01341160321601
32	67	66	-0.0054355945029327
32	68	67	0.02975464878862
32	69	68	-0.0012589163520731
32	70	69	-0.036140279964494
32	71	70	0.028599504574881
32	72	71	-0.00039100411976434
32	73	72	-0.015808592026381
32	74	73	-0.017282410675932
32	75	74	0.048661905648195
32	76	75	0.0015159513620959
32	77	76	0.0066034063431661
32	78	77	-0.40814869757877
32	79	78	-0.52389787875886
32	80	79	-0.44935857867948
32	81	80	-0.00016857351981985
32	82	81	0
32	83	82	0
32	84	83	2.2315948181969
32	85	84	1.7246617488835
32	86	85	-1.19894343975
32	87	86	-0.70303202591435
32	88	87	-0.30737694611884
32	89	88	-0.26872706221595
32	90	89	-0.084558026990949
32	91	90	0.01094090348721
32	92	91	-0.062489135815003
32	93	92	-0.012134255116838
32	94	93	0.043500261117947
32	95	94	-0.027433343988651
32	96	95	0.0063235524508882
32	97	96	0.0085024046412143
32	98	97	-0.001518585131377
32	99	98	0.0096819230700027
32	100	99	0.011345140539979
32	101	100	-0.023733703773168
29	10	9	0.98717002816878
29	11	10	1.2046167049297
29	12	11	1.292309558092
29	13	12	1.3334205439762
29	14	13	1.3687931606573
29	15	14	1.3503744033664
29	16	15	1.3273328021952
29	17	16	1.374051165426
29	18	17	1.3258370833404
29	19	18	1.3411765162872
29	20	19	1.3108692237878
29	21	20	1.3187420284089
29	22	21	1.3179768092979
29	23	22	1.3433892951795
29	24	23	1.3699840096836
29	25	24	1.3713385022584
29	26	25	1.3681248582239
29	27	26	1.3904122710296
29	28	27	1.3593273508377
29	29	28	1.3843053122836
29	30	29	1.3637301612033
29	31	30	1.3736858976085
29	32	31	1.3663434329935
29	33	32	1.3506970174644
29	34	33	1.3486133685582
29	35	34	1.3341487746002
29	36	35	1.3463178195399
29	37	36	1.32191819372
29	38	37	1.3310370739937
29	39	38	1.3639679605307
29	40	39	1.346455938459
29	41	40	1.3286563172633
29	42	41	1.3707539162701
29	43	42	1.3243905038682
29	44	43	1.3813908999785
29	45	44	1.3743596380651
29	46	45	1.3383133632119
29	47	46	1.3832927084268
29	48	47	1.3216694173642
29	49	48	1.3632315214567
29	50	49	1.3654044684907
29	51	50	1.3599568259731
29	52	51	1.3218953284773
29	53	52	1.3131068295793
29	54	53	1.3473939979204
29	55	54	1.3923683861727
29	56	55	1.3837930458096
29	57	56	1.3516640763078
29	58	57	1.3498209789472
29	59	58	1.3838001090717
29	60	59	1.3685329328266
29	61	60	1.3470120956992
29	62	61	1.3700186850353
29	63	62	1.3794155010283
29	64	63	1.3380915777416
29	65	64	1.3561667126776
29	66	65	1.3427551094615
29	67	66	1.3373195149586
29	68	67	1.3670741637472
29	69	68	1.3658152473952
29	70	69	1.3296749674307
29	71	70	1.3582744720055
29	72	71	1.3578834678858
29	73	72	1.3420748758594
29	74	73	1.3247924651835
29	75	74	1.3734543708317
29	76	75	1.3749703221938
29	77	76	1.3815737285369
29	78	77	0.97342503095816
29	79	78	0.4495271521993
29	80	79	0.00016857351981985
29	81	80	0
29	82	81	0
29	83	82	0
29	84	83	2.2315948181969
29	85	84	3.9562565670805
29	86	85	2.7573131273305
29	87	86	2.0542811014161
29	88	87	1.7469041552973
29	89	88	1.4781770930813
29	90	89	1.3936190660904
29	91	90	1.4045599695776
29	92	91	1.3420708337626
29	93	92	1.3299365786458
29	94	93	1.3734368397637
29	95	94	1.3460034957751
29	96	95	1.352327048226
29	97	96	1.3608294528672
29	98	97	1.3593108677358
29	99	98	1.3689927908058
29	100	99	1.3803379313458
29	101	100	1.3566042275726
26	9	8	2332.5304056342
26	10	9	2332.5304056342
26	11	10	2332.2967248048
26	12	11	2331.9549873223
26	13	12	2331.5675719604
26	14	13	2331.1656935747
26	15	14	2330.7527982834
26	16	15	2330.3383439311
26	17	16	2329.9197826366
26	18	17	2329.4995542684
26	19	18	2329.083176741
26	20	19	2328.6615616545
26	21	20	2328.2410329408
26	22	21	2327.8230592453
26	23	22	2327.4017714279
26	24	23	2326.983716981
26	25	24	2326.5658737867
26	26	25	2326.1440876642
26	27	26	2325.72582651
26	28	27	2325.3067822124
26	29	28	2324.8877029647
26	30	29	2324.4678798103
26	31	30	2324.0462338271
26	32	31	2323.628924287
26	33	32	2323.2123529141
26	34	33	2322.7965864284
26	35	34	2322.375957255
26	36	35	2321.9568597169
26	37	36	2321.5421958369
26	38	37	2321.1280719352
26	39	38	2320.7076853037
26	40	39	2320.2915109875
26	41	40	2319.8744402055
26	42	41	2319.4560803562
26	43	42	2319.0359785644
26	44	43	2318.6149707606
26	45	44	2318.1935631386
26	46	45	2317.775237168
26	47	46	2317.3558393439
26	48	47	2316.934041969
26	49	48	2316.5153482317
26	50	49	2316.0981773836
26	51	50	2315.6796998952
26	52	51	2315.2621374454
26	53	52	2314.8424053826
26	54	53	2314.4259519685
26	55	54	2314.0114329864
26	56	55	2313.5942196085
26	57	56	2313.1757423298
26	58	57	2312.7568155607
26	59	58	2312.3384928074
26	60	59	2311.9201128412
26	61	60	2311.5009429966
26	62	61	2311.0820153689
26	63	62	2310.6658778249
26	64	63	2310.2442287191
26	65	64	2309.8255726428
26	66	65	2309.4063517483
26	67	66	2308.9894464219
26	68	67	2308.5708754278
26	69	68	2308.1533305923
26	70	69	2307.736100363
26	71	70	2307.3208334945
26	72	71	2306.9039512063
26	73	72	2306.4845559315
26	74	73	2306.0632762892
26	75	74	2305.6427170627
26	76	75	2305.2230218718
26	77	76	2304.8054912873
26	78	77	2304.3883542907
26	79	78	2303.9461361022
26	80	79	2303.7506526973
26	81	80	2303.6389392634
26	82	81	2303.6389392634
26	83	82	2303.6389392634
26	84	83	2303.6389392634
26	85	84	2303.2477233228
26	86	85	2302.2958548081
26	87	86	2301.3175943668
26	88	87	2300.6119261144
26	89	88	2300.0591992671
26	90	89	2299.5842669694
26	91	90	2299.1487423096
26	92	91	2298.7332878565
26	93	92	2298.3222386551
26	94	93	2297.9161768997
26	95	94	2297.5115391913
26	96	95	2297.1114915325
26	97	96	2296.7110637112
26	98	97	2296.3081729531
26	99	98	2295.9074345649
26	100	99	2295.5053194582
26	101	100	2295.1068742585
25	9	8	2049.9746322216
25	10	9	2049.9746322216
25	11	10	2050.6909469974
25	12	11	2051.738493811
25	13	12	2052.9260595555
25	14	13	2054.1579596069
25	15	14	2055.4236303888
25	16	15	2056.6940802469
25	17	16	2057.9771193418
25	18	17	2059.2652686101
25	19	18	2060.541613683
25	20	19	2061.8340137355
25	21	20	2063.1230836695
25	22	21	2064.4043215645
25	23	22	2065.6957184212
25	24	23	2066.9772038483
25	25	24	2068.2580417109
25	26	25	2069.5509660495
25	27	26	2070.8330851081
25	28	27	2072.1176047791
25	29	28	2073.4022315848
25	30	29	2074.6891387286
25	31	30	2075.9816334906
25	32	31	2077.2608355138
25	33	32	2078.537774792
25	34	33	2079.8122468048
25	35	34	2081.1016246835
25	36	35	2082.3863075557
25	37	36	2083.6573996904
25	38	37	2084.9268365996
25	39	38	2086.2154710011
25	40	39	2087.4911931595
25	41	40	2088.7696633041
25	42	41	2090.0520848979
25	43	42	2091.3398461647
25	44	43	2092.63038468
25	45	44	2093.9235969014
25	46	45	2095.2089985201
25	47	46	2096.4976936522
25	48	47	2097.7937619498
25	49	48	2099.0823831159
25	50	49	2100.368115491
25	51	50	2101.6578749687
25	52	51	2102.9448142715
25	53	52	2104.2384403829
25	54	53	2105.5219616064
25	55	54	2106.7995208554
25	56	55	2108.0853843088
25	57	56	2109.3751431403
25	58	57	2110.6662873138
25	59	58	2111.9555698934
25	60	59	2113.245028805
25	61	60	2114.536922144
25	62	61	2115.8280689638
25	63	62	2117.1106166665
25	64	63	2118.4101511588
25	65	64	2119.7004610494
25	66	65	2120.9925117259
25	67	66	2122.2774257557
25	68	67	2123.5674734206
25	69	68	2124.8543584355
25	70	69	2126.1402738253
25	71	70	2127.4201380814
25	72	71	2128.704981107
25	73	72	2129.9975692284
25	74	73	2131.2959650236
25	75	74	2132.592140477
25	76	75	2133.8856529486
25	77	76	2135.1724940414
25	78	77	2136.4581220855
25	79	78	2137.8210510735
25	80	79	2138.4235364669
25	81	80	2138.7678404357
25	82	81	2138.7678404357
25	83	82	2138.7678404357
25	84	83	2138.7678404357
25	85	84	2139.9844315098
25	86	85	2143.0436706167
25	87	86	2146.1877315375
25	88	87	2148.4557001499
25	89	88	2150.2321257385
25	90	89	2151.7585250636
25	91	90	2153.1582709852
25	92	91	2154.4935126602
25	93	92	2155.8145961633
25	94	93	2157.1196503623
25	95	94	2158.4201277731
25	96	95	2159.7058530848
25	97	96	2160.9928002117
25	98	97	2162.2876630464
25	99	98	2163.5756083138
25	100	99	2164.8679782587
25	101	100	2166.1720140578
46	21	20	1.2078465366912
46	22	21	1.196074883086
46	23	22	1.2014245289046
46	24	23	1.1631530386905
46	25	24	1.1666485993096
46	26	25	1.191386981874
46	27	26	1.1780668605467
46	28	27	1.1778060043463
46	29	28	1.1742632627575
46	30	29	1.1781710431198
46	31	30	1.1735956676741
46	32	31	1.1588333544971
46	33	32	1.2013505280034
46	34	33	1.1543863956957
46	35	34	1.1856572661208
46	36	35	1.1690067271602
46	37	36	1.1865869487746
46	38	37	1.1637556583388
46	39	38	1.1742102912459
46	40	39	1.1755228324336
46	41	40	1.1841960163032
46	42	41	1.1832359323592
46	43	42	1.1555690398525
46	44	43	1.1793144369045
46	45	44	1.1672453948997
46	46	45	1.1846189773601
46	47	46	1.1633104423794
46	48	47	0.973
46	49	48	0.973
46	50	49	0.973
46	51	50	1.1357159167833
46	52	51	1.2112202416021
46	53	52	1.2027418356421
46	54	53	1.2167322333665
46	55	54	1.1884069509552
46	56	55	0.973
46	57	56	0.973
46	58	57	0.973
46	59	58	0.973
46	60	59	0.973
46	61	60	0.973
46	62	61	2.5396853856359
46	63	62	3.2985189300085
46	64	63	0.973
46	65	64	0.973
46	66	65	0.973
46	67	66	0.973
46	68	67	0.973
46	69	68	1.1541885291604
46	70	69	1.1567311132258
46	71	70	1.1835549822341
46	72	71	1.1650065697124
46	73	72	1.1785918439864
46	74	73	1.1815243437271
46	75	74	1.1640544597688
46	76	75	1.1697585713291
46	77	76	1.1776033916764
46	78	77	1.1798435259475
46	79	78	1.1775777326335
46	80	79	1.1755205101997
46	81	80	1.1920808739469
46	82	81	0.973
46	83	82	0.973
46	84	83	0.973
46	85	84	1.1877357269355
46	86	85	1.199504095752
46	87	86	1.1835000354292
46	88	87	1.1900638271517
46	89	88	1.1838140630619
46	90	89	1.2010146209356
46	91	90	1.1611666756592
46	92	91	1.1892421271584
46	93	92	1.1636094566397
46	94	93	1.1780482247553
46	95	94	1.1782683942436
46	96	95	1.1746558475391
46	97	96	1.1698335347782
46	98	97	1.1830678509179
46	99	98	1.1637999880464
46	100	99	1.1709398240312
46	101	100	1.1731219198498
45	21	20	0.13195363073124
45	22	21	0.07492683975756
45	23	22	0.075796069160211
45	24	23	-0.035690586977034
45	25	24	-0.021875394218631
45	26	25	0.047289701831128
45	27	26	0.0057887299073687
45	28	27	0.0043403364907137
45	29	28	-0.0055814249587012
45	30	29	0.0054631212879537
45	31	30	-0.007341987077415
45	32	31	-0.046922417721382
45	33	32	0.072062933742018
45	34	33	-0.062008343084045
45	35	34	0.030458416623254
45	36	35	-0.018007541101743
45	37	36	0.031057031181656
45	38	37	-0.033919403692797
45	39	38	-0.0012638740832238
45	40	39	0.0024415818854242
45	41	40	0.025086639671172
45	42	41	0.019064743551617
45	43	42	-0.0579767159551
45	44	43	0.01415258339173
45	45	44	-0.020499675196391
45	46	45	0.029116346517657
45	47	46	-0.032464071078167
45	48	47	-0.17487048154546
45	49	48	-0.20797934064743
45	50	49	-0.29152314391743
45	51	50	-0.026293175145043
45	52	51	0.27330894490145
45	53	52	0.16528517480981
45	54	53	0.16364402347877
45	55	54	0.055251761156333
45	56	55	-1.2706776632424
45	57	56	0
45	58	57	0
45	59	58	0
45	60	59	0
45	61	60	0
45	62	61	2.3366014608279
45	63	62	1.9241749344952
45	64	63	-0.80948964582952
45	65	64	-0.92563145707193
45	66	65	-0.60726521799976
45	67	66	-0.28630411563173
45	68	67	-0.14765981532789
45	69	68	-0.071190355196305
45	70	69	-0.057811627391101
45	71	70	0.020868492092293
45	72	71	-0.031176727294697
45	73	72	0.0092725565732299
45	74	73	0.01572530903747
45	75	74	-0.033095546013658
45	76	75	-0.013489172810093
45	77	76	0.009573265904512
45	78	77	0.014234484290841
45	79	78	0.0062838959016833
45	80	79	-1.9398087462541e-005
45	81	80	0.042960074177967
45	82	81	-0.12467701386483
45	83	82	-0.19128414522571
45	84	83	-0.23188508537141
45	85	84	0.1292798123242
45	86	85	0.13349438997613
45	87	86	0.059707916024433
45	88	87	0.06745318679103
45	89	88	0.038942350518337
45	90	89	0.077767287223797
45	91	90	-0.03948473510004
45	92	91	0.041384717424379
45	93	92	-0.032876486139094
45	94	93	0.010649543018279
45	95	94	0.0097806240409122
45	96	95	-0.0011881356359034
45	97	96	-0.014105527470767
45	98	97	0.023254269316173
45	99	98	-0.031836368912015
45	100	99	-0.0082038692994815
45	101	100	-0.0011330557116507
44	20	19	1.0884066295653
44	21	20	1.2203602602965
44	22	21	1.2952871000541
44	23	22	1.3710831692143
44	24	23	1.3353925822372
44	25	24	1.3135171880186
44	26	25	1.3608068898497
44	27	26	1.3665956197571
44	28	27	1.3709359562478
44	29	28	1.3653545312891
44	30	29	1.3708176525771
44	31	30	1.3634756654997
44	32	31	1.3165532477783
44	33	32	1.3886161815203
44	34	33	1.3266078384363
44	35	34	1.3570662550595
44	36	35	1.3390587139578
44	37	36	1.3701157451394
44	38	37	1.3361963414466
44	39	38	1.3349324673634
44	40	39	1.3373740492488
44	41	40	1.36246068892
44	42	41	1.3815254324716
44	43	42	1.3235487165165
44	44	43	1.3377012999082
44	45	44	1.3172016247119
44	46	45	1.3463179712295
44	47	46	1.3138539001513
44	48	47	1.1389834186059
44	49	48	0.93100407795845
44	50	49	0.63948093404102
44	51	50	0.61318775889598
44	52	51	0.88649670379744
44	53	52	1.0517818786072
44	54	53	1.215425902086
44	55	54	1.2706776632424
44	56	55	0
44	57	56	0
44	58	57	0
44	59	58	0
44	60	59	0
44	61	60	0
44	62	61	2.3366014608279
44	63	62	4.260776395323
44	64	63	3.4512867494935
44	65	64	2.5256552924216
44	66	65	1.9183900744218
44	67	66	1.6320859587901
44	68	67	1.4844261434622
44	69	68	1.4132357882659
44	70	69	1.3554241608748
44	71	70	1.3762926529671
44	72	71	1.3451159256724
44	73	72	1.3543884822456
44	74	73	1.3701137912831
44	75	74	1.3370182452694
44	76	75	1.3235290724593
44	77	76	1.3331023383639
44	78	77	1.3473368226547
44	79	78	1.3536207185564
44	80	79	1.3536013204689
44	81	80	1.3965613946469
44	82	81	1.2718843807821
44	83	82	1.0806002355563
44	84	83	0.84871515018493
44	85	84	0.97799496250914
44	86	85	1.1114893524853
44	87	86	1.1711972685097
44	88	87	1.2386504553007
44	89	88	1.2775928058191
44	90	89	1.3553600930429
44	91	90	1.3158753579428
44	92	91	1.3572600753672
44	93	92	1.3243835892281
44	94	93	1.3350331322464
44	95	94	1.3448137562873
44	96	95	1.3436256206514
44	97	96	1.3295200931806
44	98	97	1.3527743624968
44	99	98	1.3209379935848
44	100	99	1.3127341242853
44	101	100	1.3116010685737
41	19	18	2332.4351851587
41	20	19	2332.4351851587
41	21	20	2332.1395188231
41	22	21	2331.7747235675
41	23	22	2331.3774832064
41	24	23	2330.9653867023
41	25	24	2330.5521823126
41	26	25	2330.1358095213
41	27	26	2329.7203964178
41	28	27	2329.3024110464
41	29	28	2328.8837604037
41	30	29	2328.4605285624
41	31	30	2328.038662804
41	32	31	2327.6235760865
41	33	32	2327.2069258005
41	34	33	2326.7882019267
41	35	34	2326.3710460308
41	36	35	2325.9528221324
41	37	36	2325.5337064842
41	38	37	2325.1139983367
41	39	38	2324.6987246481
41	40	39	2324.2836615838
41	41	40	2323.8671174455
41	42	41	2323.4504551416
41	43	42	2323.032631564
41	44	43	2322.6150228188
41	45	44	2322.1968535388
41	46	45	2321.7812667475
41	47	46	2321.3598935469
41	48	47	2320.9420275513
41	49	48	2320.5527026578
41	50	49	2320.233696792
41	51	50	2320.0005395313
41	52	51	2319.8250155307
41	53	52	2319.5877887741
41	54	53	2319.2791640804
41	55	54	2318.9272465071
41	56	55	2318.547719485
41	57	56	2318.5108464293
41	58	57	2318.5108464293
41	59	58	2318.5108464293
41	60	59	2318.5108464293
41	61	60	2318.5108464293
41	62	61	2318.5108464293
41	63	62	2318.1102711166
41	64	63	2317.0600079344
41	65	64	2315.781545433
41	66	65	2314.8877165925
41	67	66	2314.2221035873
41	68	67	2313.684799444
41	69	68	2313.2082743117
41	70	69	2312.7640709763
41	71	70	2312.3361243727
41	72	71	2311.9132085821
41	73	72	2311.4897777788
41	74	73	2311.0684714712
41	75	74	2310.6505043939
41	76	75	2310.236375121
41	77	76	2309.8194458527
41	78	77	2309.4055872498
41	79	78	2308.9888981401
41	80	79	2308.5704432416
41	81	80	2308.1517591628
41	82	81	2307.7318740389
41	83	82	2307.3229728356
41	84	83	2306.9588379546
41	85	84	2306.6705658231
41	86	85	2306.393807551
41	87	86	2306.0690689973
41	88	87	2305.7106409318
41	89	88	2305.3267030579
41	90	89	2304.9282063562
41	91	90	2304.5210321948
41	92	91	2304.1130519994
41	93	92	2303.7003819669
41	94	93	2303.2879451946
41	95	94	2302.8852379105
41	96	95	2302.4836661111
41	97	96	2302.0799830046
41	98	97	2301.6820231638
41	99	98	2301.2786675792
41	100	99	2300.877376881
41	101	100	2300.4749870479
40	19	18	2050.2665168137
40	20	19	2050.2665168137
40	21	20	2051.1728391914
40	22	21	2052.2910662725
40	23	22	2053.5087491306
40	24	23	2054.7719713459
40	25	24	2056.0385896242
40	26	25	2057.3149201793
40	27	26	2058.5883089501
40	28	27	2059.8695826362
40	29	28	2061.1528956154
40	30	29	2062.4502515957
40	31	30	2063.7434200467
40	32	31	2065.0158083289
[...]
22	39	38	0
22	40	39	0
22	41	40	0
22	42	41	0
22	43	42	0
22	44	43	0
22	45	44	0
22	46	45	0
22	47	46	0
22	48	47	0
22	49	48	0
22	50	49	0
22	51	50	0
22	52	51	0
22	53	52	0
22	54	53	0
22	55	54	0
22	56	55	0
22	57	56	0
22	58	57	0
22	59	58	0
22	60	59	0
22	61	60	0
22	62	61	0
22	63	62	0
22	64	63	0
22	65	64	0
22	66	65	0
22	67	66	0
22	68	67	0
22	69	68	0
22	70	69	0
22	71	70	0
22	72	71	0
22	73	72	0
22	74	73	0
22	75	74	0
22	76	75	0
22	77	76	0
22	78	77	0
22	79	78	0
22	80	79	0
22	81	80	0
22	82	81	0.42828428262554
22	83	82	1.4292865872369
22	84	83	2.9006773331349
22	85	84	3.7913171671244
22	86	85	3.9912310601828
22	87	86	5.3421640028063
22	88	87	3.522068591168
22	89	88	5.9277641291533
22	90	89	7.8156032070902
22	91	90	9.7689370926761
22	92	91	11.738800656792
22	93	92	13.765093666109
22	94	93	15.706079618578
22	95	94	17.610450811557
22	96	95	19.614406217031
22	97	96	21.740459030225
22	98	97	23.98094283543
22	99	98	26.067962142384
22	100	99	25.876504858627
22	101	100	25.556078430802
12	5	4	2284.3968181659
12	6	5	2284.3968181659
12	7	6	2286.2430350757
12	8	7	2288.4856941777
12	9	8	2290.9350342618
12	10	9	2293.5138999616
12	11	10	2296.1700574515
12	12	11	2298.8793246364
12	13	12	2301.6289494659
12	14	13	2304.4005360579
12	15	14	2307.1980300097
12	16	15	2310.0163624953
12	17	16	2312.8568268146
12	18	17	2315.7158730328
12	19	18	2318.5775054464
12	20	19	2321.402165718
12	21	20	2324.1826914635
12	22	21	2326.6350984941
12	23	22	2329.0105693295
12	24	23	2330.9544271877
12	25	24	2332.530974904
12	26	25	2334.3353406942
12	27	26	2335.6773706611
12	28	27	2337.1158437164
12	29	28	2337.8220854106
12	30	29	2333.2305813094
12	31	30	2324.380281981
12	32	31	2315.3954916746
12	33	32	2308.3851429984
12	34	33	2303.1246860079
12	35	34	2299.5373360805
12	36	35	2297.3316752356
12	37	36	2296.0908378591
12	38	37	2295.5372131523
12	39	38	2295.2354217398
12	40	39	2295.2354217398
12	41	40	2295.2354217398
12	42	41	2295.2354217398
12	43	42	2295.2354217398
12	44	43	2295.2354217398
12	45	44	2295.2354217398
12	46	45	2295.2354217398
12	47	46	2295.2354217398
12	48	47	2295.2354217398
12	49	48	2295.2354217398
12	50	49	2295.2354217398
12	51	50	2295.2354217398
12	52	51	2295.2354217398
12	53	52	2295.2354217398
12	54	53	2295.2354217398
12	55	54	2295.2354217398
12	56	55	2295.2354217398
12	57	56	2295.2354217398
12	58	57	2295.2354217398
12	59	58	2295.2354217398
12	60	59	2295.2354217398
12	61	60	2295.2354217398
12	62	61	2295.2354217398
12	63	62	2295.2354217398
12	64	63	2295.2354217398
12	65	64	2295.2354217398
12	66	65	2295.2354217398
12	67	66	2295.2354217398
12	68	67	2295.2354217398
12	69	68	2295.2354217398
12	70	69	2295.2354217398
12	71	70	2295.2354217398
12	72	71	2295.2354217398
12	73	72	2295.2354217398
12	74	73	2295.2354217398
12	75	74	2295.2354217398
12	76	75	2295.2354217398
12	77	76	2295.2354217398
12	78	77	2295.2354217398
12	79	78	2295.2354217398
12	80	79	2295.2354217398
12	81	80	2295.2354217398
12	82	81	2295.2354217398
12	83	82	2294.9245926264
12	84	83	2294.1581983896
12	85	84	2292.0993114561
12	86	85	2288.5674047169
12	87	86	2285.1026737619
12	88	87	2280.379848242
12	89	88	2277.6096335098
12	90	89	2275.197066113
12	91	90	2273.1552881721
12	92	91	2271.9337842563
12	93	92	2272.2499775021
12	94	93	2275.7646571272
12	95	94	2280.0040326462
12	96	95	2284.8130254917
12	97	96	2290.2008145637
12	98	97	2296.3704775925
12	99	98	2303.4305367173
12	100	99	2311.1897633377
12	101	100	2319.2426555778
11	5	4	2452.1054471738
11	6	5	2452.1054471738
11	7	6	2446.3312388246
11	8	7	2439.2386913197
11	9	8	2431.4925024825
11	10	9	2423.3366809095
11	11	10	2414.9364192914
11	12	11	2406.3681949922
11	13	12	2397.6723371572
11	14	13	2388.9070238958
11	15	14	2380.075821377
11	16	15	2371.1983316646
11	17	16	2362.3030902018
11	18	17	2353.3993312437
11	19	18	2344.4498765461
11	20	19	2335.5181887411
11	21	20	2326.726056058
11	22	21	2318.9714477645
11	23	22	2311.4601147716
11	24	23	2305.3135591306
11	25	24	2300.3284527255
11	26	25	2294.6229765357
11	27	26	2290.3957727376
11	28	27	2285.8052522396
11	29	28	2278.9537191426
11	30	29	2271.9870710789
11	31	30	2268.5335481682
11	32	31	2265.6000311261
11	33	32	2263.311165542
11	34	33	2261.5936362837
11	35	34	2260.4223733171
11	36	35	2259.7022292228
11	37	36	2259.2970981662
11	38	37	2259.1163407465
11	39	38	2259.0178064211
11	40	39	2259.0178064211
11	41	40	2259.0178064211
11	42	41	2259.0178064211
11	43	42	2259.0178064211
11	44	43	2259.0178064211
11	45	44	2259.0178064211
11	46	45	2259.0178064211
11	47	46	2259.0178064211
11	48	47	2259.0178064211
11	49	48	2259.0178064211
11	50	49	2259.0178064211
11	51	50	2259.0178064211
11	52	51	2259.0178064211
11	53	52	2259.0178064211
11	54	53	2259.0178064211
11	55	54	2259.0178064211
11	56	55	2259.0178064211
11	57	56	2259.0178064211
11	58	57	2259.0178064211
11	59	58	2259.0178064211
11	60	59	2259.0178064211
11	61	60	2259.0178064211
11	62	61	2259.0178064211
11	63	62	2259.0178064211
11	64	63	2259.0178064211
11	65	64	2259.0178064211
11	66	65	2259.0178064211
11	67	66	2259.0178064211
11	68	67	2259.0178064211
11	69	68	2259.0178064211
11	70	69	2259.0178064211
11	71	70	2259.0178064211
11	72	71	2259.0178064211
11	73	72	2259.0178064211
11	74	73	2259.0178064211
11	75	74	2259.0178064211
11	76	75	2259.0178064211
11	77	76	2259.0178064211
11	78	77	2259.0178064211
11	79	78	2259.0178064211
11	80	79	2259.0178064211
11	81	80	2259.0178064211
11	82	81	2259.0178064211
11	83	82	2258.9163213035
11	84	83	2258.6660950346
11	85	84	2257.9938723448
11	86	85	2256.8407114744
11	87	86	2255.7094833704
11	88	87	2254.1674897704
11	89	88	2251.1783193491
11	90	89	2246.9971231031
11	91	90	2240.3554776173
11	92	91	2231.5772949971
11	93	92	2220.8166137249
11	94	93	2208.4898541243
11	95	94	2194.3241973276
11	96	95	2178.2551933243
11	97	96	2160.3821323627
11	98	97	2140.5368920012
11	99	98	2118.6605904157
11	100	99	2094.7514544715
11	101	100	2070.0707442713
10	4	3	3.9259187730866
10	5	4	5.1867238413028
10	6	5	5.776838806588
10	7	6	8.2238221550139
10	8	7	7.6551140592036
10	9	8	9.1777281072397
10	10	9	10.380755796795
10	11	10	11.722732647168
10	12	11	6.587310502226
10	13	12	0.973
10	14	13	0.973
10	15	14	0.973
10	16	15	0.973
10	17	16	0.973
10	18	17	0.973
10	19	18	0.973
10	20	19	0.973
10	21	20	0.973
10	22	21	0.973
10	23	22	0.973
10	24	23	0.973
10	25	24	0.973
10	26	25	0.973
10	27	26	0.973
10	28	27	0.973
10	29	28	0.973
10	30	29	0.973
10	31	30	0.973
10	32	31	0.973
10	33	32	0.973
10	34	33	0.973
10	35	34	0.973
10	36	35	0.973
10	37	36	0.973
10	38	37	0.973
10	39	38	0.973
10	40	39	0.973
10	41	40	0.973
10	42	41	0.973
10	43	42	0.973
10	44	43	0.973
10	45	44	0.973
10	46	45	0.973
10	47	46	0.973
10	48	47	0.973
10	49	48	0.973
10	50	49	0.973
10	51	50	0.973
10	52	51	0.973
10	53	52	0.973
10	54	53	0.973
10	55	54	0.973
10	56	55	0.973
10	57	56	0.973
10	58	57	0.973
10	59	58	0.973
10	60	59	0.973
10	61	60	0.973
10	62	61	0.973
10	63	62	2.4926678254525
10	64	63	3.3582959450995
10	65	64	4.3945013701635
10	66	65	5.8679987736715
10	67	66	6.1547736110642
10	68	67	7.6319273620907
10	69	68	7.7690992690902
10	70	69	0.973
10	71	70	0.973
10	72	71	0.973
10	73	72	0.973
10	74	73	0.973
10	75	74	0.973
10	76	75	0.973
10	77	76	0.973
10	78	77	0.973
10	79	78	0.973
10	80	79	0.973
10	81	80	0.973
10	82	81	0.973
10	83	82	0.973
10	84	83	0.973
10	85	84	0.973
10	86	85	0.973
10	87	86	0.973
10	88	87	0.973
10	89	88	0.973
10	90	89	0.973
10	91	90	0.973
10	92	91	0.973
10	93	92	0.973
10	94	93	0.973
10	95	94	0.973
10	96	95	0.973
10	97	96	0.973
10	98	97	0.973
10	99	98	0.973
10	100	99	0.973
10	101	100	0.973
9	4	3	1.8142905896786
9	5	4	1.965479587377
9	6	5	1.7976490879292
9	7	6	2.2525302506192
9	8	7	1.738786477854
9	9	8	1.8825723925093
9	10	9	1.9075085263001
9	11	10	1.9449514976098
9	12	11	0.78044932082707
9	13	12	-3.6097744822758
9	14	13	-3.5337294166701
9	15	14	-3.3539836404987
9	16	15	-2.8817709259713
9	17	16	-2.5941878555947
9	18	17	-1.8646381811894
9	19	18	-1.1940105428458
9	20	19	-0.5623061964432
9	21	20	-0.43661732330409
9	22	21	-0.0027026470440662
9	23	22	0
9	24	23	0
9	25	24	0
9	26	25	0
9	27	26	0
9	28	27	0
9	29	28	0
9	30	29	0
9	31	30	0
9	32	31	0
9	33	32	0
9	34	33	0
9	35	34	0
9	36	35	0
9	37	36	0
9	38	37	0
9	39	38	0
9	40	39	0
9	41	40	0
9	42	41	0
9	43	42	0
9	44	43	0
9	45	44	0
9	46	45	0
9	47	46	0
9	48	47	0
9	49	48	0
9	50	49	0
9	51	50	0
9	52	51	0
9	53	52	0
9	54	53	0
9	55	54	0
9	56	55	0
9	57	56	0
9	58	57	0
9	59	58	0
9	60	59	0
9	61	60	0
9	62	61	0
9	63	62	2.2962864039799
9	64	63	1.9762988937495
9	65	64	1.968573830016
9	66	65	2.1310834835959
9	67	66	1.8148728652019
9	68	67	1.9693276771833
9	69	68	1.7176167421252
9	70	69	-3.1181043131085
9	71	70	-3.1627129730135
9	72	71	-2.6956674617883
9	73	72	-2.1127484989846
9	74	73	-1.4333996234737
9	75	74	-0.80181037878615
9	76	75	-0.11207340104697
9	77	76	-0.43754324565001
9	78	77	0
9	79	78	0
9	80	79	0
9	81	80	0
9	82	81	0
9	83	82	0
9	84	83	0
9	85	84	0
9	86	85	0
9	87	86	0
9	88	87	0
9	89	88	0
9	90	89	0
9	91	90	0
9	92	91	0
9	93	92	0
9	94	93	0
9	95	94	0
9	96	95	0
9	97	96	0
9	98	97	0
9	99	98	0
9	100	99	0
9	101	100	0
2	3	2	3.949503481133
2	4	3	5.7637940708115
2	5	4	7.7292736581886
2	6	5	9.5269227461177
2	7	6	11.779452996737
2	8	7	13.518239474591
2	9	8	15.4008118671
2	10	9	17.3083203934
2	11	10	19.25327189101
2	12	11	20.033721211837
2	13	12	16.423946729561
2	14	13	12.890217312891
2	15	14	9.5362336723926
2	16	15	6.6544627464213
2	17	16	4.0602748908265
2	18	17	2.1956367096371
2	19	18	1.0016261667913
2	20	19	0.43931997034815
2	21	20	0.0027026470440662
2	22	21	0
2	23	22	0
2	24	23	0
2	25	24	0
2	26	25	0
2	27	26	0
2	28	27	0
2	29	28	0
2	30	29	0
2	31	30	0
2	32	31	0
2	33	32	0
2	34	33	0
2	35	34	0
2	36	35	0
2	37	36	0
2	38	37	0
2	39	38	0
2	40	39	0
2	41	40	0
2	42	41	0
2	43	42	0
2	44	43	0
2	45	44	0
2	46	45	0
2	47	46	0
2	48	47	0
2	49	48	0
2	50	49	0
2	51	50	0
2	52	51	0
2	53	52	0
2	54	53	0
2	55	54	0
2	56	55	0
2	57	56	0
2	58	57	0
2	59	58	0
2	60	59	0
2	61	60	0
2	62	61	0
2	63	62	2.2962864039799
2	64	63	4.2725852977294
2	65	64	6.2411591277454
2	66	65	8.3722426113412
2	67	66	10.187115476543
2	68	67	12.156443153726
2	69	68	13.874059895852
2	70	69	10.755955582743
2	71	70	7.5932426097297
2	72	71	4.8975751479414
2	73	72	2.7848266489568
2	74	73	1.3514270254831
2	75	74	0.54961664669699
2	76	75	0.43754324565001
2	77	76	0
2	78	77	0
2	79	78	0
2	80	79	0
2	81	80	0
2	82	81	0
2	83	82	0
2	84	83	0
2	85	84	0
2	86	85	0
2	87	86	0
2	88	87	0
2	89	88	0
2	90	89	0
2	91	90	0
2	92	91	0
2	93	92	0
2	94	93	0
2	95	94	0
2	96	95	0
2	97	96	0
2	98	97	0
2	99	98	0
2	100	99	0
2	101	100	0
1	2	1	2332.2523312561
1	3	2	2332.2523312561
1	4	3	2331.3182228813
1	5	4	2329.7901701151
1	6	5	2327.6893087333
1	7	6	2324.9991290863
1	8	7	2321.678032646
1	9	8	2317.7359550689
1	10	9	2313.2389491939
1	11	10	2308.1579729415
1	12	11	2302.5271021048
1	13	12	2296.5590032016
1	14	13	2291.3501370182
1	15	14	2287.2091390241
1	16	15	2284.0506178379
1	17	16	2281.7819214467
1	18	17	2280.3005272352
1	19	18	2279.4467990478
1	20	19	2279.0209723764
1	21	20	2278.8403527457
1	22	21	2278.7369775889
1	23	22	2278.7369739314
1	24	23	2278.7369739314
1	25	24	2278.7369739314
1	26	25	2278.7369739314
1	27	26	2278.7369739314
1	28	27	2278.7369739314
1	29	28	2278.7369739314
1	30	29	2278.7369739314
1	31	30	2278.7369739314
1	32	31	2278.7369739314
1	33	32	2278.7369739314
1	34	33	2278.7369739314
1	35	34	2278.7369739314
1	36	35	2278.7369739314
1	37	36	2278.7369739314
1	38	37	2278.7369739314
1	39	38	2278.7369739314
1	40	39	2278.7369739314
1	41	40	2278.7369739314
1	42	41	2278.7369739314
1	43	42	2278.7369739314
1	44	43	2278.7369739314
1	45	44	2278.7369739314
1	46	45	2278.7369739314
1	47	46	2278.7369739314
1	48	47	2278.7369739314
1	49	48	2278.7369739314
1	50	49	2278.7369739314
1	51	50	2278.7369739314
1	52	51	2278.7369739314
1	53	52	2278.7369739314
1	54	53	2278.7369739314
1	55	54	2278.7369739314
1	56	55	2278.7369739314
1	57	56	2278.7369739314
1	58	57	2278.7369739314
1	59	58	2278.7369739314
1	60	59	2278.7369739314
1	61	60	2278.7369739314
1	62	61	2278.7369739314
1	63	62	2278.7369739314
1	64	63	2278.3774404169
1	65	64	2277.5283947335
1	66	65	2276.2223178882
1	67	66	2275.0455548642
1	68	67	2275.5757228134
1	69	68	2285.2174589869
1	70	69	2297.7088104899
1	71	70	2309.3197967521
1	72	71	2317.8451913235
1	73	72	2323.6218158976
1	74	73	2327.1289550936
1	75	74	2328.9731754738
1	76	75	2329.7912171363
1	77	76	2330.2171614908
1	78	77	2330.2884811463
1	79	78	2330.2884811463
1	80	79	2330.2884811463
1	81	80	2330.2884811463
1	82	81	2330.2884811463
1	83	82	2330.2884811463
1	84	83	2330.2884811463
1	85	84	2330.2884811463
1	86	85	2330.2884811463
1	87	86	2330.2884811463
1	88	87	2330.2884811463
1	89	88	2330.2884811463
1	90	89	2330.2884811463
1	91	90	2330.2884811463
1	92	91	2330.2884811463
1	93	92	2330.2884811463
1	94	93	2330.2884811463
1	95	94	2330.2884811463
1	96	95	2330.2884811463
1	97	96	2330.2884811463
1	98	97	2330.2884811463
1	99	98	2330.2884811463
1	100	99	2330.2884811463
1	101	100	2330.2884811463
0	2	1	2050.8270289986
0	3	2	2050.8270289986
0	4	3	2053.6904030839
0	5	4	2058.3744277754
0	6	5	2064.8143144094
0	7	6	2073.0606709291
0	8	7	2083.2410116034
0	9	8	2095.3297016973
0	10	9	2109.180337794
0	11	10	2124.8400505836
0	12	11	2142.3004579118
0	13	12	2161.4815120984
0	14	13	2178.7271905352
0	15	14	2192.5665828813
0	16	15	2203.1224957293
0	17	16	2210.7045760675
0	18	17	2215.65545886
0	19	18	2218.5086549639
0	20	19	2219.931785906
0	21	20	2220.5354244342
0	22	21	2220.880908628
0	23	22	2220.8809208516
0	24	23	2220.8809208516
0	25	24	2220.8809208516
0	26	25	2220.8809208516
0	27	26	2220.8809208516
0	28	27	2220.8809208516
0	29	28	2220.8809208516
0	30	29	2220.8809208516
0	31	30	2220.8809208516
0	32	31	2220.8809208516
0	33	32	2220.8809208516
0	34	33	2220.8809208516
0	35	34	2220.8809208516
0	36	35	2220.8809208516
0	37	36	2220.8809208516
0	38	37	2220.8809208516
0	39	38	2220.8809208516
0	40	39	2220.8809208516
0	41	40	2220.8809208516
0	42	41	2220.8809208516
0	43	42	2220.8809208516
0	44	43	2220.8809208516
0	45	44	2220.8809208516
0	46	45	2220.8809208516
0	47	46	2220.8809208516
0	48	47	2220.8809208516
0	49	48	2220.8809208516
0	50	49	2220.8809208516
0	51	50	2220.8809208516
0	52	51	2220.8809208516
0	53	52	2220.8809208516
0	54	53	2220.8809208516
0	55	54	2220.8809208516
0	56	55	2220.8809208516
0	57	56	2220.8809208516
0	58	57	2220.8809208516
0	59	58	2220.8809208516
0	60	59	2220.8809208516
0	61	60	2220.8809208516
0	62	61	2220.8809208516
0	63	62	2220.8809208516
0	64	63	2222.1274765488
0	65	64	2225.4913426647
0	66	65	2230.6659377786
0	67	66	2237.9637887868
0	68	67	2247.2747239068
0	69	68	2252.3777750838
0	70	69	2256.4577932915
0	71	70	2260.2502600513
0	72	71	2263.0348878853
0	73	72	2264.9216920022
0	74	73	2266.067219912
0	75	74	2266.6695929001
0	76	75	2266.936787757
0	77	76	2267.0759128726
0	78	77	2267.0992078293
0	79	78	2267.0992078293
0	80	79	2267.0992078293
0	81	80	2267.0992078293
0	82	81	2267.0992078293
0	83	82	2267.0992078293
0	84	83	2267.0992078293
0	85	84	2267.0992078293
0	86	85	2267.0992078293
0	87	86	2267.0992078293
0	88	87	2267.0992078293
0	89	88	2267.0992078293
0	90	89	2267.0992078293
0	91	90	2267.0992078293
0	92	91	2267.0992078293
0	93	92	2267.0992078293
0	94	93	2267.0992078293
0	95	94	2267.0992078293
0	96	95	2267.0992078293
0	97	96	2267.0992078293
0	98	97	2267.0992078293
0	99	98	2267.0992078293
0	100	99	2267.0992078293
0	101	100	2267.0992078293
54	63	62	3.6195798050449
54	64	63	4.6148177294969
54	65	64	5.5854087670399
54	66	65	6.2331064061532
54	67	66	4.9078721240534
54	68	67	1.6041321030997
54	69	68	1.8507079523924
54	70	69	1.7478768739823
54	71	70	2.0338297518032
54	72	71	1.6976950653326
54	73	72	1.970455266535
54	74	73	1.5903348858076
54	75	74	2.0887522093522
54	76	75	1.4956878668634
54	77	76	0.973
54	78	77	0.973
54	79	78	0.973
54	80	79	0.973
54	81	80	0.973
54	82	81	0.973
54	83	82	3.036700332462
54	84	83	3.6150374280379
54	85	84	4.735675378046
54	86	85	5.7536484960218
54	87	86	6.7736724043933
54	88	87	8.1858605019459
54	89	88	0.973
54	90	89	0.973
54	91	90	0.973
54	92	91	0.973
54	93	92	3.6140172210146
54	94	93	5.3181054015153
54	95	94	5.9228460622398
54	96	95	7.0338715658586
54	97	96	7.325519041326
54	98	97	5.9785766750975
54	99	98	0.973
54	100	99	0.973
54	101	100	0.973
53	63	62	1.9190579992998
53	64	63	1.9175497506373
53	65	64	1.9022312453529
53	66	65	1.7830540147563
53	67	66	1.1065369812833
53	68	67	-0.07326383966487
53	69	68	0.015004533098546
53	70	69	-0.021344857777004
53	71	70	0.07867828397546
53	72	71	-0.04045421520248
53	73	72	0.055478975002188
53	74	73	-0.078442272914108
53	75	74	0.097012645206414
53	76	75	-0.11216495410772
53	77	76	-2.2628759026275
53	78	77	-2.9706215386279
53	79	78	-2.3571298197001
53	80	79	-1.9172565186511
53	81	80	-1.0841685036608
53	82	81	-0.49725739865195
53	83	82	2.5115244299034
53	84	83	1.9251984707173
53	85	84	1.9786153255845
53	86	85	1.9580703386245
53	87	86	1.94197759439
53	88	87	2.0341135668848
53	89	88	-1.3991468139376
53	90	89	-2.119879478158
53	91	90	-3.0113033015702
53	92	91	-2.4196907996334
53	93	92	1.67479944241
53	94	93	2.0793137457198
53	95	94	1.8759552604612
53	96	95	1.9113540739892
53	97	96	1.7060107952123
53	98	97	1.1426748170897
53	99	98	-3.3941766768142
53	100	99	-3.1978473201002
53	101	100	-2.5960564501376
52	62	61	2.9734424978059
52	63	62	4.8925004971058
52	64	63	6.810050247743
52	65	64	8.7122814930959
52	66	65	10.495335507852
52	67	66	11.601872489136
52	68	67	11.528608649471
52	69	68	11.543613182569
52	70	69	11.522268324792
52	71	70	11.600946608768
52	72	71	11.560492393565
52	73	72	11.615971368567
52	74	73	11.537529095653
52	75	74	11.63454174086
52	76	75	11.522376786752
52	77	76	9.2595008841245
52	78	77	6.2888793454966
52	79	78	3.9317495257966
52	80	79	2.0144930071454
52	81	80	0.93032450348469
52	82	81	0.43306710483273
52	83	82	2.9445915347361
52	84	83	4.8697900054534
52	85	84	6.8484053310379
52	86	85	8.8064756696625
52	87	86	10.748453264053
52	88	87	12.782566830937
52	89	88	11.383420017
52	90	89	9.2635405388417
52	91	90	6.2522372372715
52	92	91	3.832546437638
52	93	92	5.507345880048
52	94	93	7.5866596257679
52	95	94	9.4626148862291
52	96	95	11.373968960218
52	97	96	13.079979755431
52	98	97	14.22265457252
52	99	98	10.828477895706
52	100	99	7.6306305756059
52	101	100	5.0345741254683
51	61	60	2284.2890704457
51	62	61	2284.2890704457
51	63	62	2284.902451164
51	64	63	2286.1383166261
51	65	64	2287.9421564379
51	66	65	2290.3149613092
51	67	66	2293.2498581219
51	68	67	2296.6628117639
51	69	68	2300.1542286488
51	70	69	2303.6466528994
51	71	70	2307.1426362222
51	72	71	2310.65294984
51	73	72	2314.1823369372
51	74	73	2317.7232504435
51	75	74	2321.2186381764
51	76	75	2324.7038093568
51	77	76	2328.1981284018
51	78	77	2331.4020279417
51	79	78	2333.701868919
51	80	79	2335.1886977516
51	81	80	2336.0495452477
51	82	81	2336.4682104036
51	83	82	2336.6469134973
51	84	83	2337.1511813167
51	85	84	2337.8941414724
51	86	85	2337.1790117277
51	87	86	2331.2697808234
51	88	87	2321.9487698095
51	89	88	2310.6367738315
51	90	89	2299.3344997265
51	91	90	2289.3876291281
51	92	91	2282.203126077
51	93	92	2278.3507326251
51	94	93	2275.6983333322
51	95	94	2273.7236367674
51	96	95	2272.1976208359
51	97	96	2272.037208624
51	98	97	2274.9039027335
51	99	98	2278.9275204125
51	100	99	2282.4579403627
51	101	100	2285.0600258407
50	61	60	2452.4405645731
50	62	61	2452.4405645731
50	63	62	2450.5328253593
50	64	63	2446.6624173698
50	65	64	2440.957662891
50	66	65	2433.4535213767
50	67	66	2424.1717294863
50	68	67	2413.3780534363
50	69	68	2402.3362325491
50	70	69	2391.2912258058
50	71	70	2380.2503067444
50	72	71	2369.1931397178
50	73	72	2358.1751322299
50	74	73	2347.1478742057
50	75	74	2336.0985101063
50	76	75	2325.0782606118
50	77	76	2314.0290852065
50	78	77	2303.8982277945
50	79	78	2296.6260394125
50	80	79	2291.9246276761
50	81	80	2289.244574327
50	82	81	2287.949572789
50	83	82	2287.3968141511
50	84	83	2285.6202298985
50	85	84	2281.730202668
50	86	85	2275.9446373118
50	87	86	2270.9758959403
50	88	87	2267.7396640429
50	89	88	2264.0463187505
50	90	89	2260.3561476312
50	91	90	2257.1085131933
50	92	91	2254.7627865352
50	93	92	2252.0612556155
50	94	93	2248.6166666632
50	95	94	2242.2042437375
50	96	95	2233.7752566564
50	97	96	2223.2979588847
50	98	97	2211.3660209731
50	99	98	2197.9213079804
50	100	99	2186.1245900114
50	101	100	2177.4298542721

