version 2
run General-0-20200529-11:05:09-4916
attr configname General
attr datetime 20200529-11:05:09
attr experiment General
attr inifile omnetpp.ini
attr iterationvars ""
attr iterationvarsf ""
attr measurement ""
attr network globcomm.simulation.Thesis
attr processid 4916
attr repetition 0
attr replication #0
attr resultdir results
attr runnumber 0
attr seedset 0
param **.debug false
param **.coreDebug false
param *.playgroundSizeX 3000m
param *.playgroundSizeY 3000m
param *.playgroundSizeZ 500m
param *.annotations.draw true
param *.manager.updateInterval 1s
param *.manager.host "\"localhost\""
param *.manager.port 9999
param *.manager.autoShutdown true
param *.manager.launchConfig "xmldoc(\"erlangen.launchd.xml\")"
param Thesis.rsu[0].mobility.x 2000
param Thesis.rsu[0].mobility.y 2000
param Thesis.rsu[0].mobility.z 3
param *.rsu[*].applType "\"globcomm.src.RSU11p\""
param *.rsu[*].appl.headerLength "80 bit"
param *.rsu[*].appl.sendBeacons false
param *.rsu[*].appl.dataOnSch false
param *.rsu[*].appl.beaconInterval 1s
param *.rsu[*].appl.beaconUserPriority 7
param *.rsu[*].appl.dataUserPriority 5
param *.connectionManager.sendDirect true
param *.connectionManager.maxInterfDist 400m
param *.connectionManager.drawMaxIntfDist true
param *.**.nic.mac1609_4.useServiceChannel false
param *.**.nic.mac1609_4.txPower 20mW
param *.**.nic.mac1609_4.bitrate 6Mbps
param *.**.nic.phy80211p.sensitivity -89dBm
param *.**.nic.phy80211p.useThermalNoise true
param *.**.nic.phy80211p.thermalNoise -110dBm
param *.**.nic.phy80211p.decider "xmldoc(\"config.xml\")"
param *.**.nic.phy80211p.analogueModels "xmldoc(\"config.xml\")"
param *.**.nic.phy80211p.usePropagationDelay true
param *.**.nic.phy80211p.antenna "xmldoc(\"antenna.xml\", \"/root/Antenna[@id='monopole']\")"
param *.node[*].applType "\"globcomm.src.MyThesisApp\""
param *.node[*].appl.headerLength "80 bit"
param *.node[*].appl.sendBeacons false
param *.node[*].appl.dataOnSch false
param *.node[*].appl.beaconInterval 1s
param *.node[*].veinsmobilityType.debug true
param *.node[*].veinsmobility.x 0
param *.node[*].veinsmobility.y 0
param *.node[*].veinsmobility.z 1.895
param *.node[*].veinsmobility.accidentCount 0
param *.node[*].veinsmobility.accidentStart 75s
param *.node[*].veinsmobility.accidentDuration 50s
param Thesis.manager.numVehicles 5

vector 0 Thesis.node[0].veinsmobility posx ETV
vector 1 Thesis.node[0].veinsmobility posy ETV
vector 2 Thesis.node[0].veinsmobility speed ETV
vector 3 Thesis.node[1].veinsmobility posx ETV
vector 4 Thesis.node[1].veinsmobility posy ETV
vector 5 Thesis.node[2].veinsmobility posx ETV
vector 6 Thesis.node[2].veinsmobility posy ETV
vector 7 Thesis.node[3].veinsmobility posx ETV
vector 8 Thesis.node[3].veinsmobility posy ETV
vector 9 Thesis.node[4].veinsmobility posx ETV
vector 10 Thesis.node[4].veinsmobility posy ETV
vector 11 Thesis.node[0].veinsmobility acceleration ETV
vector 12 Thesis.node[0].veinsmobility co2emission ETV
vector 13 Thesis.node[1].veinsmobility speed ETV
vector 14 Thesis.node[2].veinsmobility speed ETV
vector 15 Thesis.node[3].veinsmobility speed ETV
vector 16 Thesis.node[4].veinsmobility speed ETV
vector 17 Thesis.node[1].veinsmobility acceleration ETV
vector 18 Thesis.node[1].veinsmobility co2emission ETV
vector 19 Thesis.node[2].veinsmobility acceleration ETV
vector 20 Thesis.node[2].veinsmobility co2emission ETV
vector 21 Thesis.node[3].veinsmobility acceleration ETV
vector 22 Thesis.node[3].veinsmobility co2emission ETV
vector 23 Thesis.node[4].veinsmobility acceleration ETV
vector 24 Thesis.node[4].veinsmobility co2emission ETV
vector 25 Thesis.node[5].veinsmobility posx ETV
vector 26 Thesis.node[5].veinsmobility posy ETV
vector 27 Thesis.node[5].veinsmobility speed ETV
vector 28 Thesis.node[5].veinsmobility acceleration ETV
vector 29 Thesis.node[5].veinsmobility co2emission ETV
24	6	5	1.6399839049095
24	7	6	1.6200030926325
24	8	7	1.5821891620849
24	9	8	1.4348047179128
24	10	9	1.744154036794
24	11	10	1.5897884597155
24	12	11	1.5420512799965
24	13	12	1.7534013685363
24	14	13	1.386604834889
24	15	14	1.6184431870354
24	17	15	1.6877441748248
24	36	16	1.6779964554317
24	75	17	1.4314573487021
24	208	18	1.5718047909647
24	209	19	1.6041188043117
24	210	20	1.5681664789731
24	211	21	0.973
24	212	22	0.973
24	213	23	3.6453435662591
24	214	24	4.6802411815738
24	215	25	1.4999647259479
24	216	26	1.9518064141905
24	217	27	6.1076026042474
24	218	28	7.3420103014141
24	219	29	0.973
24	220	30	0.973
24	221	31	0.973
24	222	32	0.973
24	223	33	0.973
24	224	34	0.973
24	225	35	0.973
24	226	36	0.973
24	227	37	0.973
24	228	38	0.973
24	229	39	0.973
24	230	40	0.973
24	231	41	0.973
24	232	42	0.973
24	233	43	0.973
24	234	44	0.973
24	235	45	0.973
24	236	46	0.973
24	237	47	0.973
24	238	48	0.973
24	239	49	0.973
24	240	50	0.973
24	241	51	0.973
24	242	52	0.973
24	243	53	0.973
24	244	54	0.973
24	246	55	0.973
24	267	56	0.973
24	268	57	0.973
24	269	58	0.973
24	270	59	0.973
24	271	60	0.973
24	272	61	0.973
24	273	62	0.973
24	274	63	0.973
24	275	64	0.973
24	276	65	0.973
24	277	66	0.973
24	278	67	0.973
24	279	68	0.973
24	280	69	0.973
24	281	70	0.973
24	282	71	0.973
24	283	72	0.973
24	284	73	0.973
24	285	74	0.973
24	286	75	0.973
24	287	76	0.973
24	288	77	0.973
24	289	78	0.973
24	290	79	0.973
24	291	80	0.973
24	292	81	2.3743358356408
24	293	82	2.2060615494702
24	294	83	5.129624044422
24	295	84	5.1725205940977
24	296	85	6.128401047871
24	297	86	2.2916826010836
24	298	87	5.5676681640539
24	299	88	7.5202667261191
24	300	89	9.4206000627251
24	301	90	10.301919400878
24	302	91	11.411016979997
24	303	92	13.67870126268
24	304	93	8.115778959811
24	305	94	3.2521176815331
24	307	95	3.5191176229597
24	324	96	2.9211957629859
24	325	97	3.4838313337713
24	326	98	3.1121288906528
24	327	99	3.1706534371099
24	328	100	2.6594916135637
23	6	5	0.020367288864218
23	7	6	0.010575645361095
23	8	7	-0.0070261032669805
23	9	8	-0.074748954658862
23	10	9	0.069601483468432
23	11	10	-0.0031702748755915
23	12	11	-0.024965427357239
23	13	12	0.072156031220221
23	14	13	-0.098024768140167
23	15	14	0.011699605437462
23	17	15	0.04294656863436
23	36	16	0.036972338638735
23	75	17	-0.077070702449419
23	208	18	-0.010191243179143
23	209	19	0.0049835300748242
23	210	20	-0.011706144926139
23	211	21	-2.4971220568172
23	212	22	-2.4828872431326
23	213	23	1.7130311337659
23	214	24	1.8143522326624
23	215	25	0.0017130365129558
23	216	26	0.24235158870462
23	217	27	1.9533599976846
23	218	28	2.0019081797288
23	219	29	-1.4448230585135
23	220	30	-3.0179749594543
23	221	31	-2.6094734976907
23	222	32	-2.0276525534495
23	223	33	-1.2442500485746
23	224	34	-0.66417202346188
23	225	35	-0.15340744074843
23	226	36	-0.31791286647906
23	227	37	0
23	228	38	0
23	229	39	0
23	230	40	0
23	231	41	0
23	232	42	0
23	233	43	0
23	234	44	0
23	235	45	0
23	236	46	0
23	237	47	0
23	238	48	0
23	239	49	0
23	240	50	0
23	241	51	0
23	242	52	0
23	243	53	0
23	244	54	0
23	246	55	0
23	267	56	0
23	268	57	0
23	269	58	0
23	270	59	0
23	271	60	0
23	272	61	0
23	273	62	0
23	274	63	0
23	275	64	0
23	276	65	0
23	277	66	0
23	278	67	0
23	279	68	0
23	280	69	0
23	281	70	0
23	282	71	0
23	283	72	0
23	284	73	0
23	285	74	0
23	286	75	0
23	287	76	0
23	288	77	0
23	289	78	0
23	290	79	0
23	291	80	0
23	292	81	2.1916822653016
23	293	82	1.15463838332
23	294	83	2.5940394537663
23	295	84	1.9205476789176
23	296	85	1.8972628164897
23	297	86	0.25129120198313
23	298	87	1.3748895892152
23	299	88	1.7575816881144
23	300	89	1.9908101750445
23	301	90	1.9243711924227
23	302	91	1.9148158530961
23	303	92	2.1040553117963
23	304	93	0.93482476448053
23	305	94	0.017338965535167
23	307	95	0.065191379345485
23	324	96	-0.045629036421886
23	325	97	0.058101366048213
23	326	98	-0.011285961961839
23	327	99	-0.00028516000136847
23	328	100	-0.093467099091502
16	5	4	8.7705607064168
16	6	5	8.790927995281
16	7	6	8.8015036406421
16	8	7	8.7944775373751
16	9	8	8.7197285827163
16	10	9	8.7893300661847
16	11	10	8.7861597913091
16	12	11	8.7611943639519
16	13	12	8.8333503951721
16	14	13	8.7353256270319
16	15	14	8.7470252324694
16	17	15	8.7899718011037
16	36	16	8.8269441397425
16	75	17	8.7498734372931
16	208	18	8.7396821941139
16	209	19	8.7446657241887
16	210	20	8.7329595792626
16	211	21	6.2358375224453
16	212	22	3.7529502793128
16	213	23	5.4659814130787
16	214	24	7.2803336457411
16	215	25	7.282046682254
16	216	26	7.5243982709586
16	217	27	9.4777582686432
16	218	28	11.479666448372
16	219	29	10.034843389858
16	220	30	7.0168684304042
16	221	31	4.4073949327134
16	222	32	2.379742379264
16	223	33	1.1354923306894
16	224	34	0.47132030722749
16	225	35	0.31791286647906
16	226	36	0
16	227	37	0
16	228	38	0
16	229	39	0
16	230	40	0
16	231	41	0
16	232	42	0
16	233	43	0
16	234	44	0
16	235	45	0
16	236	46	0
16	237	47	0
16	238	48	0
16	239	49	0
16	240	50	0
16	241	51	0
16	242	52	0
16	243	53	0
16	244	54	0
16	246	55	0
16	267	56	0
16	268	57	0
16	269	58	0
16	270	59	0
16	271	60	0
16	272	61	0
16	273	62	0
16	274	63	0
16	275	64	0
16	276	65	0
16	277	66	0
16	278	67	0
16	279	68	0
16	280	69	0
16	281	70	0
16	282	71	0
16	283	72	0
16	284	73	0
16	285	74	0
16	286	75	0
16	287	76	0
16	288	77	0
16	289	78	0
16	290	79	0
16	291	80	0
16	292	81	2.1916822653016
16	293	82	3.3463206486215
16	294	83	5.9403601023878
16	295	84	7.8609077813055
16	296	85	9.7581705977951
16	297	86	10.009461799778
16	298	87	11.384351388993
16	299	88	13.141933077108
16	300	89	15.132743252152
16	301	90	17.057114444575
16	302	91	18.971930297671
16	303	92	21.075985609467
16	304	93	22.010810373948
16	305	94	22.028149339483
16	307	95	22.093340718829
16	324	96	22.047711682407
16	325	97	22.105813048455
16	326	98	22.094527086493
16	327	99	22.094241926492
16	328	100	22.0007748274
10	4	3	2286.6472114726
10	5	4	2286.6472114726
10	6	5	2289.2961787196
10	7	6	2291.9427004933
10	8	7	2294.5919963173
10	9	8	2297.2344039898
10	10	9	2299.8842449809
10	11	10	2302.5428424504
10	12	11	2305.1910947593
10	13	12	2307.8460452389
10	14	13	2310.5059774814
10	15	14	2313.1821923794
10	17	15	2315.8635937251
10	36	16	2318.5439029668
10	75	17	2321.1923832471
10	208	18	2323.845718004
10	209	19	2326.4911611242
10	210	20	2329.1477024604
10	211	21	2331.795780994
10	212	22	2334.0542054147
10	213	23	2335.5035836963
10	214	24	2336.8387751919
10	215	25	2338.0542806245
10	216	26	2335.4201235945
10	217	27	2329.1140627145
10	218	28	2320.8735157472
10	219	29	2310.759636073
10	220	30	2299.9898059343
10	221	31	2292.044911825
10	222	32	2286.7460531659
10	223	33	2283.6457531396
10	224	34	2282.063004931
10	225	35	2281.3772596462
10	226	36	2280.9718702878
10	227	37	2280.9717365196
10	228	38	2280.9717365196
10	229	39	2280.9717365196
10	230	40	2280.9717365196
10	231	41	2280.9717365196
10	232	42	2280.9717365196
10	233	43	2280.9717365196
10	234	44	2280.9717365196
10	235	45	2280.9717365196
10	236	46	2280.9717365196
10	237	47	2280.9717365196
10	238	48	2280.9717365196
10	239	49	2280.9717365196
10	240	50	2280.9717365196
10	241	51	2280.9717365196
10	242	52	2280.9717365196
10	243	53	2280.9717365196
10	244	54	2280.9717365196
10	246	55	2280.9717365196
10	267	56	2280.9717365196
10	268	57	2280.9717365196
10	269	58	2280.9717365196
10	270	59	2280.9717365196
10	271	60	2280.9717365196
10	272	61	2280.9717365196
10	273	62	2280.9717365196
10	274	63	2280.9717365196
10	275	64	2280.9717365196
10	276	65	2280.9717365196
10	277	66	2280.9717365196
10	278	67	2280.9717365196
10	279	68	2280.9717365196
10	280	69	2280.9717365196
10	281	70	2280.9717365196
10	282	71	2280.9717365196
10	283	72	2280.9717365196
10	284	73	2280.9717365196
10	285	74	2280.9717365196
10	286	75	2280.9717365196
10	287	76	2280.9717365196
10	288	77	2280.9717365196
10	289	78	2280.9717365196
10	290	79	2280.9717365196
10	291	80	2280.9717365196
10	292	81	2280.9717365196
10	293	82	2279.8456244239
10	294	83	2277.8182009927
10	295	84	2275.3348375135
10	296	85	2273.2860337478
10	297	86	2271.9876764937
10	298	87	2272.1401155584
10	299	88	2274.7423430905
10	300	89	2278.2796058094
10	301	90	2282.3782662184
10	302	91	2287.0179927188
10	303	92	2292.2962414761
10	304	93	2298.3018062403
10	305	94	2305.0556691651
10	307	95	2311.8634525076
10	324	96	2318.7029433861
10	325	97	2325.5340450347
10	326	98	2332.3590006483
10	327	99	2339.0369865068
10	328	100	2345.7093090506
9	4	3	2445.0530060817
9	5	4	2445.0530060817
9	6	5	2436.6754840495
9	7	6	2428.3056959769
9	8	7	2419.9271347995
9	9	8	2411.5703578253
9	10	9	2403.1900725235
9	11	10	2394.7820943194
9	12	11	2386.4068333226
9	13	12	2378.0346326386
9	14	13	2369.6560892132
9	15	14	2361.2898234193
9	17	15	2352.939293407
9	36	16	2344.556128919
9	75	17	2336.1815292339
9	208	18	2327.7915795013
9	209	19	2319.4265834367
9	210	20	2311.026494373
9	211	21	2302.653165027
9	212	22	2295.5119374393
9	213	23	2290.9333249643
9	214	24	2286.8033537542
9	215	25	2280.2813994683
9	216	26	2273.6688240402
9	217	27	2270.0791186247
9	218	28	2267.3885956252
9	219	29	2264.08643304
9	220	30	2260.5701038686
9	221	31	2257.9761109681
9	222	32	2256.2460436377
9	223	33	2255.2338015427
9	224	34	2254.717037246
9	225	35	2254.4931427075
9	226	36	2254.3607838487
9	227	37	2254.3607401736
9	228	38	2254.3607401736
9	229	39	2254.3607401736
9	230	40	2254.3607401736
9	231	41	2254.3607401736
9	232	42	2254.3607401736
9	233	43	2254.3607401736
9	234	44	2254.3607401736
9	235	45	2254.3607401736
9	236	46	2254.3607401736
9	237	47	2254.3607401736
9	238	48	2254.3607401736
9	239	49	2254.3607401736
9	240	50	2254.3607401736
9	241	51	2254.3607401736
9	242	52	2254.3607401736
9	243	53	2254.3607401736
9	244	54	2254.3607401736
9	246	55	2254.3607401736
9	267	56	2254.3607401736
9	268	57	2254.3607401736
9	269	58	2254.3607401736
9	270	59	2254.3607401736
9	271	60	2254.3607401736
9	272	61	2254.3607401736
9	273	62	2254.3607401736
9	274	63	2254.3607401736
9	275	64	2254.3607401736
9	276	65	2254.3607401736
9	277	66	2254.3607401736
9	278	67	2254.3607401736
9	279	68	2254.3607401736
9	280	69	2254.3607401736
9	281	70	2254.3607401736
9	282	71	2254.3607401736
9	283	72	2254.3607401736
9	284	73	2254.3607401736
9	285	74	2254.3607401736
9	286	75	2254.3607401736
9	287	76	2254.3607401736
9	288	77	2254.3607401736
9	289	78	2254.3607401736
9	290	79	2254.3607401736
9	291	80	2254.3607401736
9	292	81	2254.3607401736
9	293	82	2253.8422511079
9	294	83	2251.4268040535
9	295	84	2247.4452760497
9	296	85	2240.780776444
9	297	86	2232.0262587899
9	298	87	2222.0978415286
9	299	88	2211.9058642695
9	300	89	2200.0862815382
9	301	90	2186.3908170957
9	302	91	2170.8874079402
9	303	92	2153.6420153509
9	304	93	2134.467483079
9	305	94	2113.6518861602
9	307	95	2092.6813913857
9	324	96	2071.7241860267
9	325	97	2050.7966826753
9	326	98	2029.6747873761
9	327	99	2008.6528340525
9	328	100	1987.6487085502
12	4	3	3.9617586426607
12	5	4	5.1124113818075
12	6	5	5.7497459316788
12	7	6	8.1901554707199
12	8	7	7.7495287368658
12	9	8	10.637025703678
12	10	9	11.112966073315
12	11	10	11.933137074224
12	12	11	3.3961924297057
12	13	12	0.973
12	14	13	0.973
12	15	14	0.973
12	17	15	0.973
12	36	16	0.973
12	75	17	0.973
12	208	18	0.973
12	209	19	0.973
12	210	20	0.973
12	211	21	0.973
12	212	22	0.973
12	213	23	0.973
12	214	24	0.973
12	215	25	0.973
12	216	26	0.973
12	217	27	0.973
12	218	28	0.973
12	219	29	0.973
12	220	30	0.973
12	221	31	0.973
12	222	32	0.973
12	223	33	0.973
12	224	34	0.973
12	225	35	0.973
12	226	36	0.973
12	227	37	0.973
12	228	38	0.973
12	229	39	0.973
12	230	40	0.973
12	231	41	0.973
12	232	42	0.973
12	233	43	0.973
12	234	44	0.973
12	235	45	0.973
12	236	46	0.973
12	237	47	0.973
12	238	48	0.973
12	239	49	0.973
12	240	50	0.973
12	241	51	0.973
12	242	52	0.973
12	243	53	0.973
12	244	54	0.973
12	246	55	0.973
12	267	56	0.973
12	268	57	0.973
12	269	58	0.973
12	270	59	0.973
12	271	60	0.973
12	272	61	0.973
12	273	62	2.4609034674215
12	274	63	3.4461054616921
12	275	64	4.6185691332668
12	276	65	5.6447870000187
12	277	66	6.4083361516895
12	278	67	7.4780349057124
12	279	68	8.2806772660203
12	280	69	0.973
12	281	70	0.973
12	282	71	0.973
12	283	72	0.973
12	284	73	0.973
12	285	74	0.973
12	286	75	1.1206189055339
12	287	76	0.973
12	288	77	0.973
12	289	78	0.973
12	290	79	0.973
12	291	80	0.973
12	292	81	0.973
12	293	82	0.973
12	294	83	0.973
12	295	84	0.973
12	296	85	0.973
12	297	86	0.973
12	298	87	0.973
12	299	88	0.973
12	300	89	0.973
12	301	90	0.973
12	302	91	0.973
12	303	92	0.973
12	304	93	0.973
12	305	94	0.973
12	307	95	0.973
12	324	96	0.973
12	325	97	0.973
12	326	98	0.973
12	327	99	0.973
12	328	100	0.973
12	330	101	0.973
12	331	102	0.973
12	367	103	0.973
12	400	104	0.973
12	499	105	0.973
12	500	106	0.973
12	501	107	0.973
12	502	108	0.973
12	503	109	0.973
12	504	110	2.3589630095001
12	505	111	3.264398170838
12	506	112	4.0062089344317
12	507	113	5.464985595244
12	508	114	6.6764466912473
12	509	115	0.973
12	510	116	0.973
12	511	117	0.973
12	512	118	2.2895673841126
12	513	119	5.2276608874633
12	514	120	6.5847614313901
12	515	121	7.2039676515229
12	516	122	8.0525797409199
12	517	123	9.6209500952207
12	518	124	8.8376075195265
12	519	125	11.606808353866
12	520	126	12.339300272661
11	4	3	1.8505604249425
11	5	4	1.9408753749891
11	6	5	1.7976490879292
11	7	6	2.2525302506192
11	8	7	1.7711721954215
11	9	8	2.220266340801
11	10	9	2.0193621406588
11	11	10	1.9344968881644
11	12	11	0.12866702400014
11	13	12	-3.6058691922551
11	14	13	-3.4661584346093
11	15	14	-3.2858650011842
11	17	15	-2.9808989944705
11	36	16	-2.4859596596694
11	75	17	-1.901269453945
11	208	18	-1.1183530412104
11	209	19	-0.52426114242657
11	210	20	-0.43073516073129
11	211	21	-0.00055565274770432
11	212	22	0
11	213	23	0
11	214	24	0
11	215	25	0
11	216	26	0
11	217	27	0
11	218	28	0
11	219	29	0
11	220	30	0
11	221	31	0
11	222	32	0
11	223	33	0
11	224	34	0
11	225	35	0
11	226	36	0
11	227	37	0
11	228	38	0
11	229	39	0
11	230	40	0
11	231	41	0
11	232	42	0
11	233	43	0
11	234	44	0
11	235	45	0
11	236	46	0
11	237	47	0
11	238	48	0
11	239	49	0
11	240	50	0
11	241	51	0
11	242	52	0
11	243	53	0
11	244	54	0
11	246	55	0
11	267	56	0
11	268	57	0
11	269	58	0
11	270	59	0
11	271	60	0
11	272	61	0
11	273	62	2.2686612884649
11	274	63	2.0416139414147
11	275	64	2.0670712923491
11	276	65	2.0149561481993
11	277	66	1.8961098842625
11	278	67	1.9090977403661
11	279	68	1.8433544709976
11	280	69	-3.4284712944079
11	281	70	-3.0860616857661
11	282	71	-2.7359925382839
11	283	72	-2.1215072850957
11	284	73	-1.3658503040011
11	285	74	-0.75882298619422
11	286	75	-0.10084848729752
11	287	76	-0.44331018500787
11	288	77	0
11	289	78	0
11	290	79	0
11	291	80	0
11	292	81	0
11	293	82	0
11	294	83	0
11	295	84	0
11	296	85	0
11	297	86	0
11	298	87	0
11	299	88	0
11	300	89	0
11	301	90	0
11	302	91	0
11	303	92	0
11	304	93	0
11	305	94	0
11	307	95	0
11	324	96	0
11	325	97	0
11	326	98	0
11	327	99	0
11	328	100	0
11	330	101	0
11	331	102	0
11	367	103	0
11	400	104	0
11	499	105	0
11	500	106	0
11	501	107	0
11	502	108	0
11	503	109	0
11	504	110	2.1777398411791
11	505	111	1.9558900484112
11	506	112	1.8086610443075
11	507	113	2.0394042162318
11	508	114	2.061067879023
11	509	115	-0.24346513183774
11	510	116	-2.9890532064308
11	511	117	-2.5768315163041
11	512	118	0.76871968102526
11	513	119	2.1642857557535
11	514	120	2.1933324478683
11	515	121	1.9803432866046
11	516	122	1.9071592041664
11	517	123	2.0231102225045
11	518	124	1.592355753202
11	519	125	1.9758258865052
11	520	126	1.8837578355172
2	3	2	3.8843460057235
2	4	3	5.7349064306661
2	5	4	7.6757818056552
2	6	5	9.4734308935843
2	7	6	11.725961144204
2	8	7	13.497133339625
2	9	8	15.717399680426
2	10	9	17.736761821085
2	11	10	19.671258709249
2	12	11	19.799925733249
2	13	12	16.194056540994
2	14	13	12.727898106385
2	15	14	9.4420331052009
2	17	15	6.4611341107304
2	36	16	3.975174451061
2	75	17	2.073904997116
2	208	18	0.95555195590556
2	209	19	0.43129081347899
2	210	20	0.00055565274770432
2	211	21	0
2	212	22	0
2	213	23	0
2	214	24	0
2	215	25	0
2	216	26	0
2	217	27	0
2	218	28	0
2	219	29	0
2	220	30	0
2	221	31	0
2	222	32	0
2	223	33	0
2	224	34	0
2	225	35	0
2	226	36	0
2	227	37	0
2	228	38	0
2	229	39	0
2	230	40	0
2	231	41	0
2	232	42	0
2	233	43	0
2	234	44	0
2	235	45	0
2	236	46	0
2	237	47	0
2	238	48	0
2	239	49	0
2	240	50	0
2	241	51	0
2	242	52	0
2	243	53	0
2	244	54	0
2	246	55	0
2	267	56	0
2	268	57	0
2	269	58	0
2	270	59	0
2	271	60	0
2	272	61	0
2	273	62	2.2686612884649
2	274	63	4.3102752298796
2	275	64	6.3773465222288
2	276	65	8.392302670428
2	277	66	10.288412554691
2	278	67	12.197510295057
2	279	68	14.040864766054
2	280	69	10.612393471646
2	281	70	7.5263317858803
2	282	71	4.7903392475964
2	283	72	2.6688319625007
2	284	73	1.3029816584996
2	285	74	0.54415867230538
2	286	75	0.44331018500787
2	287	76	0
2	288	77	0
2	289	78	0
2	290	79	0
2	291	80	0
2	292	81	0
2	293	82	0
2	294	83	0
2	295	84	0
2	296	85	0
2	297	86	0
2	298	87	0
2	299	88	0
2	300	89	0
2	301	90	0
2	302	91	0
2	303	92	0
2	304	93	0
2	305	94	0
2	307	95	0
2	324	96	0
2	325	97	0
2	326	98	0
2	327	99	0
2	328	100	0
2	330	101	0
2	331	102	0
2	367	103	0
2	400	104	0
2	499	105	0
2	500	106	0
2	501	107	0
2	502	108	0
2	503	109	0
2	504	110	2.1777398411791
2	505	111	4.1336298895903
2	506	112	5.9422909338978
2	507	113	7.9816951501296
2	508	114	10.042763029153
2	509	115	9.7992978973149
2	510	116	6.8102446908841
2	511	117	4.23341317458
2	512	118	5.0021328556053
2	513	119	7.1664186113588
2	514	120	9.3597510592271
2	515	121	11.340094345832
2	516	122	13.247253549998
2	517	123	15.270363772503
2	518	124	16.862719525705
2	519	125	18.83854541221
2	520	126	20.722303247727
1	2	1	2332.2523312561
1	3	2	2332.2523312561
1	4	3	2331.3055000344
1	5	4	2329.7719584994
1	6	5	2327.6787577718
1	7	6	2325.0051341262
1	8	7	2321.7005936874
1	9	8	2317.7740775617
1	10	9	2313.2234854893
1	11	10	2308.0449268339
1	12	11	2302.2987595048
1	13	12	2296.2607672306
1	14	13	2291.120455016
1	15	14	2287.0330342487
1	17	15	2283.9172869947
1	36	16	2281.6863659116
1	75	17	2280.2377249269
1	208	18	2279.4124906457
1	209	19	2279.0085905256
1	210	20	2278.834697906
1	211	21	2278.7369743581
1	212	22	2278.7369738113
1	213	23	2278.7369738113
1	214	24	2278.7369738113
1	215	25	2278.7369738113
1	216	26	2278.7369738113
1	217	27	2278.7369738113
1	218	28	2278.7369738113
1	219	29	2278.7369738113
1	220	30	2278.7369738113
1	221	31	2278.7369738113
1	222	32	2278.7369738113
1	223	33	2278.7369738113
1	224	34	2278.7369738113
1	225	35	2278.7369738113
1	226	36	2278.7369738113
1	227	37	2278.7369738113
1	228	38	2278.7369738113
1	229	39	2278.7369738113
1	230	40	2278.7369738113
1	231	41	2278.7369738113
1	232	42	2278.7369738113
1	233	43	2278.7369738113
1	234	44	2278.7369738113
1	235	45	2278.7369738113
1	236	46	2278.7369738113
1	237	47	2278.7369738113
1	238	48	2278.7369738113
1	239	49	2278.7369738113
1	240	50	2278.7369738113
1	241	51	2278.7369738113
1	242	52	2278.7369738113
1	243	53	2278.7369738113
1	244	54	2278.7369738113
1	246	55	2278.7369738113
1	267	56	2278.7369738113
1	268	57	2278.7369738113
1	269	58	2278.7369738113
1	270	59	2278.7369738113
1	271	60	2278.7369738113
1	272	61	2278.7369738113
1	273	62	2278.7369738113
1	274	63	2278.3752454676
1	275	64	2277.5545660435
1	276	65	2276.2258327983
1	277	66	2275.0401158868
1	278	67	2275.5924462867
1	279	68	2285.4434509522
1	280	69	2298.075298357
1	281	70	2309.5885527907
1	282	71	2318.0556079457
1	283	72	2323.7635324147
1	284	73	2327.1982972193
1	285	74	2328.9909214674
1	286	75	2329.8004918486
1	287	76	2330.2224709034
1	288	77	2330.2884810828
1	289	78	2330.2884810828
1	290	79	2330.2884810828
1	291	80	2330.2884810828
1	292	81	2330.2884810828
1	293	82	2330.2884810828
1	294	83	2330.2884810828
1	295	84	2330.2884810828
1	296	85	2330.2884810828
1	297	86	2330.2884810828
1	298	87	2330.2884810828
1	299	88	2330.2884810828
1	300	89	2330.2884810828
1	301	90	2330.2884810828
1	302	91	2330.2884810828
1	303	92	2330.2884810828
1	304	93	2330.2884810828
1	305	94	2330.2884810828
1	307	95	2330.2884810828
1	324	96	2330.2884810828
1	325	97	2330.2884810828
1	326	98	2330.2884810828
1	327	99	2330.2884810828
1	328	100	2330.2884810828
1	330	101	2330.2884810828
1	331	102	2330.2884810828
1	367	103	2330.2884810828
1	400	104	2330.2884810828
1	499	105	2330.2884810828
1	500	106	2330.2884810828
1	501	107	2330.2884810828
1	502	108	2330.2884810828
1	503	109	2330.2884810828
1	504	110	2330.2884810828
1	505	111	2331.4556337975
1	506	112	2334.5491245151
1	507	113	2339.4214312856
1	508	114	2346.1630162492
1	509	115	2354.8312043116
1	510	116	2364.8778312684
1	511	117	2372.602920261
1	512	118	2377.6813466176
1	513	119	2381.5696760099
1	514	120	2387.5135507282
1	515	121	2395.4764812871
1	516	122	2405.3613473987
1	517	123	2417.1613998842
1	518	124	2430.7974020494
1	519	125	2446.1677842617
1	520	126	2463.2636465974
0	2	1	2050.8270289986
0	3	2	2050.8270289986
0	4	3	2053.7294031305
0	5	4	2058.4302528487
0	6	5	2064.8466568557
0	7	6	2073.042263348
0	8	7	2083.1718539949
0	9	8	2095.212561674
0	10	9	2109.2279973698
0	11	10	2125.1884618906
0	12	11	2143.0343351237
0	13	12	2162.4400217365
0	14	13	2179.4947976068
0	15	14	2193.1551325703
0	17	15	2203.568093108
0	36	16	2211.0239267513
0	75	17	2215.8653468595
0	208	18	2218.6233151105
0	209	19	2219.9731665809
0	210	20	2220.5543231502
0	211	21	2220.8809194256
0	212	22	2220.8809212529
0	213	23	2220.8809212529
0	214	24	2220.8809212529
0	215	25	2220.8809212529
0	216	26	2220.8809212529
0	217	27	2220.8809212529
0	218	28	2220.8809212529
0	219	29	2220.8809212529
0	220	30	2220.8809212529
0	221	31	2220.8809212529
0	222	32	2220.8809212529
0	223	33	2220.8809212529
0	224	34	2220.8809212529
0	225	35	2220.8809212529
0	226	36	2220.8809212529
0	227	37	2220.8809212529
0	228	38	2220.8809212529
0	229	39	2220.8809212529
0	230	40	2220.8809212529
0	231	41	2220.8809212529
0	232	42	2220.8809212529
0	233	43	2220.8809212529
0	234	44	2220.8809212529
0	235	45	2220.8809212529
0	236	46	2220.8809212529
0	237	47	2220.8809212529
0	238	48	2220.8809212529
0	239	49	2220.8809212529
0	240	50	2220.8809212529
0	241	51	2220.8809212529
0	242	52	2220.8809212529
0	243	53	2220.8809212529
0	244	54	2220.8809212529
0	246	55	2220.8809212529
0	267	56	2220.8809212529
0	268	57	2220.8809212529
0	269	58	2220.8809212529
0	270	59	2220.8809212529
0	271	60	2220.8809212529
0	272	61	2220.8809212529
0	273	62	2220.8809212529
0	274	63	2222.1361728015
0	275	64	2225.3876535647
0	276	65	2230.6520119239
0	277	66	2238.0132024754
0	278	67	2247.3699970271
0	279	68	2252.4515902617
0	280	69	2256.5774982866
0	281	70	2260.3380431491
0	282	71	2263.1036157287
0	283	72	2264.9679805059
0	284	73	2266.0898689532
0	285	74	2266.6753892286
0	286	75	2266.9398171325
0	287	76	2267.0776470725
0	288	77	2267.0992078086
0	289	78	2267.0992078086
0	290	79	2267.0992078086
0	291	80	2267.0992078086
0	292	81	2267.0992078086
0	293	82	2267.0992078086
0	294	83	2267.0992078086
0	295	84	2267.0992078086
0	296	85	2267.0992078086
0	297	86	2267.0992078086
0	298	87	2267.0992078086
0	299	88	2267.0992078086
0	300	89	2267.0992078086
0	301	90	2267.0992078086
0	302	91	2267.0992078086
0	303	92	2267.0992078086
0	304	93	2267.0992078086
0	305	94	2267.0992078086
0	307	95	2267.0992078086
0	324	96	2267.0992078086
0	325	97	2267.0992078086
0	326	98	2267.0992078086
0	327	99	2267.0992078086
0	328	100	2267.0992078086
0	330	101	2267.0992078086
0	331	102	2267.0992078086
0	367	103	2267.0992078086
0	400	104	2267.0992078086
0	499	105	2267.0992078086
0	500	106	2267.0992078086
0	501	107	2267.0992078086
0	502	108	2267.0992078086
0	503	109	2267.0992078086
0	504	110	2267.0992078086
0	505	111	2267.4828600165
0	506	112	2268.5281126039
0	507	113	2270.1744053273
0	508	114	2272.4523042349
0	509	115	2275.3811787094
0	510	116	2278.6924140214
0	511	117	2281.204385954
0	512	118	2282.8557409716
0	513	119	2284.1201114284
0	514	120	2286.0533307863
0	515	121	2288.6414260571
0	516	122	2291.854096983
0	517	123	2295.689966756
0	518	124	2300.1275986123
0	519	125	2305.1296583745
0	520	126	2310.6932496963
22	6	5	4.894919146735
22	7	6	6.0643025077531
22	8	7	7.1430290783258
22	9	8	7.4905666297623
22	10	9	9.3040600914139
22	11	10	10.090808110796
22	12	11	11.325357004101
22	13	12	0.973
22	14	13	0.973
22	15	14	0.973
22	17	15	0.973
22	36	16	0.973
22	75	17	0.973
22	208	18	0.973
22	209	19	0.973
22	210	20	0.973
22	211	21	0.973
22	212	22	1.125869330388
22	213	23	0.973
22	214	24	0.973
22	215	25	0.973
22	216	26	0.973
22	217	27	0.973
22	218	28	0.973
22	219	29	0.973
22	220	30	0.973
22	221	31	0.973
22	222	32	0.973
22	223	33	0.973
22	224	34	0.973
22	225	35	0.973
22	226	36	0.973
22	227	37	0.973
22	228	38	0.973
22	229	39	0.973
22	230	40	0.973
22	231	41	0.973
22	232	42	0.973
22	233	43	0.973
22	234	44	0.973
22	235	45	0.973
22	236	46	0.973
22	237	47	0.973
22	238	48	0.973
22	239	49	0.973
22	240	50	0.973
22	241	51	0.973
22	242	52	0.973
22	243	53	0.973
22	244	54	0.973
22	246	55	0.973
22	267	56	0.973
22	268	57	0.973
22	269	58	0.973
22	270	59	0.973
22	271	60	0.973
22	272	61	0.973
22	273	62	1.3957575904754
22	274	63	2.3677519039384
22	275	64	3.2099933332422
22	276	65	4.5901400421449
22	277	66	5.6838320565421
22	278	67	6.0580906215702
22	279	68	7.713686740132
22	280	69	0.973
22	281	70	0.973
22	282	71	0.973
22	283	72	0.973
22	284	73	0.973
22	285	74	0.973
22	286	75	0.973
22	287	76	0.973
22	288	77	0.973
22	289	78	0.973
22	290	79	0.973
22	291	80	0.973
22	292	81	0.973
22	293	82	0.973
22	294	83	0.973
22	295	84	0.973
22	296	85	0.973
22	297	86	0.973
22	298	87	0.973
22	299	88	0.973
22	300	89	0.973
22	301	90	0.973
22	302	91	0.973
22	303	92	0.973
22	304	93	0.973
22	305	94	0.973
22	307	95	0.973
22	324	96	0.973
22	325	97	0.973
22	326	98	0.973
22	327	99	0.973
22	328	100	0.973
22	330	101	0.973
22	331	102	0.973
22	367	103	0.973
22	400	104	0.973
22	499	105	0.973
22	500	106	0.973
22	501	107	0.973
22	502	108	0.973
22	503	109	0.973
22	504	110	1.3456187816519
22	505	111	2.4341980491769
22	506	112	3.3345246324205
22	507	113	4.4231832760643
22	508	114	5.1696154368799
22	509	115	4.2883590156376
22	510	116	0.973
22	511	117	0.973
22	512	118	0.973
22	513	119	2.4720320953427
22	514	120	0.973
22	515	121	4.2886377394893
22	516	122	5.2487554293957
22	517	123	6.4886982737078
22	518	124	8.0664532834224
22	519	125	8.0453030947954
22	520	126	9.3598396199695
22	521	127	10.168332340323
22	522	128	11.522937758279
21	6	5	2.0704148522485
21	7	6	2.0705765163945
21	8	7	2.0359577251808
21	9	8	1.8092067196034
21	10	9	2.0144532988011
21	11	10	1.9222158128466
21	12	11	1.9388218248706
21	13	12	-0.94745188815756
21	14	13	-2.8939859118868
21	15	14	-2.6933340819098
21	17	15	-2.3612035397941
21	36	16	-2.3269488380353
21	75	17	-1.8837215017274
21	208	18	-1.7861646850213
21	209	19	-1.5530743723821
21	210	20	-1.0061177098819
21	211	21	-0.71270371095851
21	212	22	-0.050113999592649
21	213	23	-0.43861800635175
21	214	24	0
21	215	25	0
21	216	26	0
21	217	27	0
21	218	28	0
21	219	29	0
21	220	30	0
21	221	31	0
21	222	32	0
21	223	33	0
21	224	34	0
21	225	35	0
21	226	36	0
21	227	37	0
21	228	38	0
21	229	39	0
21	230	40	0
21	231	41	0
21	232	42	0
21	233	43	0
21	234	44	0
21	235	45	0
21	236	46	0
21	237	47	0
21	238	48	0
21	239	49	0
21	240	50	0
21	241	51	0
21	242	52	0
21	243	53	0
21	244	54	0
21	246	55	0
21	267	56	0
21	268	57	0
21	269	58	0
21	270	59	0
21	271	60	0
21	272	61	0
21	273	62	0.99324091356408
21	274	63	1.7202926117617
21	275	64	1.7461053365399
21	276	65	2.0143104217504
21	277	66	2.0094012783933
21	278	67	1.7633132170676
21	279	68	1.9830461362167
21	280	69	-1.0461347999163
21	281	70	-2.3602151980724
21	282	71	-2.0341391766478
21	283	72	-1.7478678592256
21	284	73	-1.4556621024705
21	285	74	-1.3494520800663
21	286	75	-0.9558968065638
21	287	76	-0.70518894694089
21	288	77	-0.14272286204487
21	289	78	-0.43243008334539
21	290	79	0
21	291	80	0
21	292	81	0
21	293	82	0
21	294	83	0
21	295	84	0
21	296	85	0
21	297	86	0
21	298	87	0
21	299	88	0
21	300	89	0
21	301	90	0
21	302	91	0
21	303	92	0
21	304	93	0
21	305	94	0
21	307	95	0
21	324	96	0
21	325	97	0
21	326	98	0
21	327	99	0
21	328	100	0
21	330	101	0
21	331	102	0
21	367	103	0
21	400	104	0
21	499	105	0
21	500	106	0
21	501	107	0
21	502	108	0
21	503	109	0
21	504	110	0.89360427518504
21	505	111	1.8210556539023
21	506	112	1.8251467022741
21	507	113	1.9140221238596
21	508	114	1.8116310814279
21	509	115	1.1643198773504
21	510	116	-2.1657338468518
21	511	117	-1.6770981377587
21	512	118	-0.36404338836378
21	513	119	0.73483998578801
21	514	120	-2.4075260823638
21	515	121	2.1154679680487
21	516	122	2.0135527254641
21	517	123	2.0560221040202
21	518	124	2.1700487000286
21	519	125	1.8236751555582
21	520	126	1.8969394107722
21	521	127	1.8355020734016
21	522	128	1.8891659603571
15	5	4	4.7917914957539
15	6	5	6.8622063480024
15	7	6	8.9327828643969
15	8	7	10.968740589578
15	9	8	12.777947309181
15	10	9	14.792400607982
15	11	10	16.714616420829
15	12	11	18.653438245699
15	13	12	17.705986357542
15	14	13	14.812000445655
15	15	14	12.118666363745
15	17	15	9.757462823951
15	36	16	7.4305139859157
15	75	17	5.5467924841883
15	208	18	3.760627799167
15	209	19	2.2075534267849
15	210	20	1.2014357169029
15	211	21	0.4887320059444
15	212	22	0.43861800635175
15	213	23	0
15	214	24	0
15	215	25	0
15	216	26	0
15	217	27	0
15	218	28	0
15	219	29	0
15	220	30	0
15	221	31	0
15	222	32	0
15	223	33	0
15	224	34	0
15	225	35	0
15	226	36	0
15	227	37	0
15	228	38	0
15	229	39	0
15	230	40	0
15	231	41	0
15	232	42	0
15	233	43	0
15	234	44	0
15	235	45	0
15	236	46	0
15	237	47	0
15	238	48	0
15	239	49	0
15	240	50	0
15	241	51	0
15	242	52	0
15	243	53	0
15	244	54	0
15	246	55	0
15	267	56	0
15	268	57	0
15	269	58	0
15	270	59	0
15	271	60	0
15	272	61	0
15	273	62	0.99324091356408
15	274	63	2.7135335253258
15	275	64	4.4596388618657
15	276	65	6.4739492836161
15	277	66	8.4833505620095
15	278	67	10.246663779077
15	279	68	12.229709915294
15	280	69	11.183575115378
15	281	70	8.8233599173052
15	282	71	6.7892207406573
15	283	72	5.0413528814318
15	284	73	3.5856907789613
15	285	74	2.236238698895
15	286	75	1.2803418923312
15	287	76	0.57515294539026
15	288	77	0.43243008334539
15	289	78	0
15	290	79	0
15	291	80	0
15	292	81	0
15	293	82	0
15	294	83	0
15	295	84	0
15	296	85	0
15	297	86	0
15	298	87	0
15	299	88	0
15	300	89	0
15	301	90	0
15	302	91	0
15	303	92	0
15	304	93	0
15	305	94	0
15	307	95	0
15	324	96	0
15	325	97	0
15	326	98	0
15	327	99	0
15	328	100	0
15	330	101	0
15	331	102	0
15	367	103	0
15	400	104	0
15	499	105	0
15	500	106	0
15	501	107	0
15	502	108	0
15	503	109	0
15	504	110	0.89360427518504
15	505	111	2.7146599290873
15	506	112	4.5398066313615
15	507	113	6.4538287552211
15	508	114	8.265459836649
15	509	115	9.4297797139994
15	510	116	7.2640458671476
15	511	117	5.586947729389
15	512	118	5.2229043410252
15	513	119	5.9577443268132
15	514	120	3.5502182444494
15	515	121	5.6656862124981
15	516	122	7.6792389379622
15	517	123	9.7352610419824
15	518	124	11.905309742011
15	519	125	13.728984897569
15	520	126	15.625924308341
15	521	127	17.461426381743
15	522	128	19.3505923421
8	4	3	2332.4037806754
8	5	4	2332.4037806754
8	6	5	2331.1930058161
8	7	6	2329.367062646
8	8	7	2326.8863421643
8	9	8	2323.7735105135
8	10	9	2320.0763802363
8	11	10	2315.7803755716
8	12	11	2310.8872698228
8	13	12	2305.4070545791
8	14	13	2299.7742366841
8	15	14	2295.0047027851
8	17	15	2291.187964927
8	36	16	2288.0932833941
8	75	17	2285.6674367866
8	208	18	2283.8429282321
8	209	19	2282.5457164466
8	210	20	2281.721336099
8	211	21	2281.2471952883
8	212	22	2281.0222288374
8	213	23	2280.8960485229
8	214	24	2280.8874137703
8	215	25	2280.8874137703
8	216	26	2280.8874137703
8	217	27	2280.8874137703
8	218	28	2280.8874137703
8	219	29	2280.8874137703
8	220	30	2280.8874137703
8	221	31	2280.8874137703
8	222	32	2280.8874137703
8	223	33	2280.8874137703
8	224	34	2280.8874137703
8	225	35	2280.8874137703
8	226	36	2280.8874137703
8	227	37	2280.8874137703
8	228	38	2280.8874137703
8	229	39	2280.8874137703
8	230	40	2280.8874137703
8	231	41	2280.8874137703
8	232	42	2280.8874137703
8	233	43	2280.8874137703
8	234	44	2280.8874137703
8	235	45	2280.8874137703
8	236	46	2280.8874137703
8	237	47	2280.8874137703
8	238	48	2280.8874137703
8	239	49	2280.8874137703
8	240	50	2280.8874137703
8	241	51	2280.8874137703
8	242	52	2280.8874137703
8	243	53	2280.8874137703
8	244	54	2280.8874137703
8	246	55	2280.8874137703
8	267	56	2280.8874137703
8	268	57	2280.8874137703
8	269	58	2280.8874137703
8	270	59	2280.8874137703
8	271	60	2280.8874137703
8	272	61	2280.8874137703
8	273	62	2280.8874137703
8	274	63	2280.7464686777
8	275	64	2280.1944869671
8	276	65	2279.146391204
8	277	66	2277.6885801252
8	278	67	2275.8303087869
8	279	68	2274.6429491085
8	280	69	2279.845775191
8	281	70	2291.3305648246
8	282	71	2300.7065775348
8	283	72	2308.0338167274
8	284	73	2313.5865082271
8	285	74	2317.5974549641
8	286	75	2320.2408497354
8	287	76	2321.8012906467
8	288	77	2322.6426223283
8	289	78	2323.0686007529
8	290	79	2323.1582683757
8	291	80	2323.1582683757
8	292	81	2323.1582683757
8	293	82	2323.1582683757
8	294	83	2323.1582683757
8	295	84	2323.1582683757
8	296	85	2323.1582683757
8	297	86	2323.1582683757
8	298	87	2323.1582683757
8	299	88	2323.1582683757
8	300	89	2323.1582683757
8	301	90	2323.1582683757
8	302	91	2323.1582683757
8	303	92	2323.1582683757
8	304	93	2323.1582683757
8	305	94	2323.1582683757
8	307	95	2323.1582683757
8	324	96	2323.1582683757
8	325	97	2323.1582683757
8	326	98	2323.1582683757
8	327	99	2323.1582683757
8	328	100	2323.1582683757
8	330	101	2323.1582683757
8	331	102	2323.1582683757
8	367	103	2323.1582683757
8	400	104	2323.1582683757
8	499	105	2323.1582683757
8	500	106	2323.1582683757
8	501	107	2323.1582683757
8	502	108	2323.1582683757
8	503	109	2323.1582683757
8	504	110	2323.1582683757
8	505	111	2323.5963628148
8	506	112	2325.3885904248
8	507	113	2328.9575165498
8	508	114	2334.2749825409
8	509	115	2341.3415472014
8	510	116	2350.1603194953
8	511	117	2357.969632352
8	512	118	2364.0302061634
8	513	119	2368.8863303665
8	514	120	2374.4626496227
8	515	121	2378.8083380574
8	516	122	2383.0826717808
8	517	123	2389.505395296
8	518	124	2397.886822074
8	519	125	2408.3044848884
8	520	126	2420.5435376545
8	521	127	2434.59350659
8	522	128	2450.3916822468
7	4	3	2050.3627827138
7	5	4	2050.3627827138
7	6	5	2054.0742378824
7	7	6	2059.6714025109
7	8	7	2067.2756922617
7	9	8	2076.8176273537
7	10	9	2088.1506453544
7	11	10	2101.3475896812
7	12	11	2116.4282802552
7	13	12	2133.3184589297
7	14	13	2151.1479756322
7	15	14	2166.5134754903
7	17	15	2179.269176598
7	36	16	2189.6117345951
7	75	17	2197.7190176751
7	208	18	2203.8166032719
7	209	19	2208.1519405217
7	210	20	2210.90705489
7	211	21	2212.4916537515
7	212	22	2213.2435012487
7	213	23	2213.6652012547
7	214	24	2213.6940589673
7	215	25	2213.6940589673
7	216	26	2213.6940589673
7	217	27	2213.6940589673
7	218	28	2213.6940589673
7	219	29	2213.6940589673
7	220	30	2213.6940589673
7	221	31	2213.6940589673
7	222	32	2213.6940589673
7	223	33	2213.6940589673
7	224	34	2213.6940589673
7	225	35	2213.6940589673
7	226	36	2213.6940589673
7	227	37	2213.6940589673
7	228	38	2213.6940589673
7	229	39	2213.6940589673
7	230	40	2213.6940589673
7	231	41	2213.6940589673
7	232	42	2213.6940589673
7	233	43	2213.6940589673
7	234	44	2213.6940589673
7	235	45	2213.6940589673
7	236	46	2213.6940589673
7	237	47	2213.6940589673
7	238	48	2213.6940589673
7	239	49	2213.6940589673
7	240	50	2213.6940589673
7	241	51	2213.6940589673
7	242	52	2213.6940589673
7	243	53	2213.6940589673
7	244	54	2213.6940589673
7	246	55	2213.6940589673
7	267	56	2213.6940589673
7	268	57	2213.6940589673
7	269	58	2213.6940589673
7	270	59	2213.6940589673
7	271	60	2213.6940589673
7	272	61	2213.6940589673
7	273	62	2213.6940589673
7	274	63	2214.1651034927
7	275	64	2216.0098499698
7	276	65	2219.5126308219
7	277	66	2224.8566981197
7	278	67	2232.219053422
7	279	68	2241.6215049079
7	280	69	2250.623235738
7	281	70	2254.3744832156
7	282	71	2257.4369462777
7	283	72	2259.8302236834
7	284	73	2261.6438851127
7	285	74	2262.9539703916
7	286	75	2263.817375668
7	287	76	2264.3270584937
7	288	77	2264.60186051
7	289	78	2264.7409967538
7	290	79	2264.7702846602
7	291	80	2264.7702846602
7	292	81	2264.7702846602
7	293	82	2264.7702846602
7	294	83	2264.7702846602
7	295	84	2264.7702846602
7	296	85	2264.7702846602
7	297	86	2264.7702846602
7	298	87	2264.7702846602
7	299	88	2264.7702846602
7	300	89	2264.7702846602
7	301	90	2264.7702846602
7	302	91	2264.7702846602
7	303	92	2264.7702846602
7	304	93	2264.7702846602
7	305	94	2264.7702846602
7	307	95	2264.7702846602
7	324	96	2264.7702846602
7	325	97	2264.7702846602
7	326	98	2264.7702846602
7	327	99	2264.7702846602
7	328	100	2264.7702846602
7	330	101	2264.7702846602
7	331	102	2264.7702846602
7	367	103	2264.7702846602
7	400	104	2264.7702846602
7	499	105	2264.7702846602
7	500	106	2264.7702846602
7	501	107	2264.7702846602
7	502	108	2264.7702846602
7	503	109	2264.7702846602
7	504	110	2264.7702846602
7	505	111	2264.9133783269
7	506	112	2265.4987690494
7	507	113	2266.6644782657
7	508	114	2268.4354833918
7	509	115	2270.8231889547
7	510	116	2273.8029439949
7	511	117	2276.4416150672
7	512	118	2278.4167912454
7	513	119	2279.9958601352
7	514	120	2281.8091152928
7	515	121	2283.2222054703
7	516	122	2284.6120931925
7	517	123	2286.7007690828
7	518	124	2289.424808622
7	519	125	2292.8106432971
7	520	126	2296.7906326352
7	521	127	2301.3629837519
7	522	128	2306.5042624578
vector 30 Thesis.node[6].veinsmobility posx ETV
vector 31 Thesis.node[6].veinsmobility posy ETV
vector 32 Thesis.node[6].veinsmobility speed ETV
vector 33 Thesis.node[7].veinsmobility posx ETV
vector 34 Thesis.node[7].veinsmobility posy ETV
vector 35 Thesis.node[6].veinsmobility acceleration ETV
vector 36 Thesis.node[6].veinsmobility co2emission ETV
vector 37 Thesis.node[7].veinsmobility speed ETV
vector 38 Thesis.node[7].veinsmobility acceleration ETV
vector 39 Thesis.node[7].veinsmobility co2emission ETV
3	4	3	2045.3088540848
3	5	4	2045.3088540848
3	6	5	2046.4111449059
3	7	6	2047.6928371293
3	8	7	2048.9744568835
3	9	8	2050.2548403927
3	10	9	2051.5329321339
3	11	10	2052.8145870766
3	12	11	2054.0932979271
3	13	12	2055.3786012772
3	14	13	2056.6666253371
3	15	14	2057.9358571049
3	17	15	2059.2157946995
3	36	16	2060.5038312709
3	75	17	2061.7921504799
3	208	18	2063.0764526734
3	209	19	2064.3567868696
3	210	20	2065.6452022844
3	211	21	2066.9208721098
3	212	22	2068.2065065457
3	213	23	2069.4949137465
3	214	24	2070.775607846
3	215	25	2072.0692857738
3	216	26	2073.3479545597
3	217	27	2074.629907494
3	218	28	2075.912833198
3	219	29	2077.1948095947
3	220	30	2078.4827743668
3	221	31	2079.7654872245
3	222	32	2081.0523583494
3	223	33	2082.3361264618
3	224	34	2083.6110226592
3	225	35	2084.9039061201
3	226	36	2086.1918944942
3	227	37	2087.4670912529
3	228	38	2088.7445638519
3	229	39	2090.0251341304
3	230	40	2091.3038271267
3	231	41	2092.5838984526
3	232	42	2093.8745429492
3	233	43	2095.1551858336
3	234	44	2096.4577268359
3	235	45	2097.754606929
3	236	46	2099.0428357375
3	237	47	2100.3413853953
3	238	48	2101.6253231371
3	239	49	2102.9100778577
3	240	50	2104.205562748
3	241	51	2105.4871808367
3	242	52	2106.7735110331
3	243	53	2108.0660212386
3	244	54	2109.3526858971
3	246	55	2110.6310652101
3	267	56	2111.9190442443
3	268	57	2113.2064705813
3	269	58	2114.4917550431
3	270	59	2115.7758740958
3	271	60	2117.0745357696
3	272	61	2118.3668343934
3	273	62	2119.6691206551
3	274	63	2120.9442595867
3	275	64	2122.2351250243
3	276	65	2123.5255669757
3	277	66	2124.8137603397
3	278	67	2126.1052060316
3	279	68	2127.3966099007
3	280	69	2128.6785173834
3	281	70	2129.9770081994
3	282	71	2131.2595474646
3	283	72	2132.5440453581
3	284	73	2133.8288146506
3	285	74	2135.1211529758
3	286	75	2136.420651131
3	287	76	2137.7033370983
3	288	77	2138.9893840498
3	289	78	2139.357370314
3	290	79	2139.357370314
3	291	80	2139.357370314
3	292	81	2139.357370314
3	293	82	2139.357370314
3	294	83	2139.357370314
3	295	84	2140.0773537201
3	296	85	2141.3767751314
3	297	86	2142.6665533881
3	298	87	2143.9555645357
3	299	88	2145.252582724
3	300	89	2146.5378230709
3	301	90	2147.8164575496
3	302	91	2149.1141884683
3	303	92	2150.4129682111
3	304	93	2151.7020448182
3	305	94	2153.0093288829
3	307	95	2154.3004666159
3	324	96	2155.5910211281
3	325	97	2156.8912150294
3	326	98	2158.1828196052
3	327	99	2159.4807050562
3	328	100	2160.7653782635
3	330	101	2162.0425867986
3	331	102	2163.3381528162
3	367	103	2164.6224653997
3	400	104	2165.9230520259
3	499	105	2167.2226849515
3	500	106	2168.5271253263
3	501	107	2169.8205606043
3	502	108	2171.1074298169
3	503	109	2172.4021084969
3	504	110	2173.7070542444
3	505	111	2174.9940617781
3	506	112	2176.2999607332
3	507	113	2177.6000813896
3	508	114	2178.9018473915
3	509	115	2180.191242691
3	510	116	2181.4869738655
3	511	117	2182.7931708805
3	512	118	2184.0902303094
3	513	119	2185.3891526548
3	514	120	2186.6818655085
3	515	121	2187.9748027214
3	516	122	2189.2758607317
3	517	123	2190.5724797637
3	518	124	2191.8689477713
3	519	125	2193.1562837746
3	520	126	2194.4463339215
3	521	127	2195.7422030781
3	522	128	2197.0338327147
3	523	129	2198.3379627959
3	524	130	2199.6298998348
3	525	131	2200.9172235592
3	526	132	2202.2087689053
3	527	133	2203.5100898442
3	528	134	2204.8013220654
3	530	135	2206.0949851075
3	543	136	2207.3873509989
3	544	137	2208.6886589411
3	545	138	2209.9843269321
3	546	139	2211.2825681631
3	547	140	2212.5713785119
3	548	141	2213.8734067059
3	549	142	2215.1724244758
3	550	143	2216.4720411764
3	551	144	2217.7685750262
3	552	145	2219.0707936932
3	553	146	2220.3811281738
3	554	147	2221.6837400169
3	555	148	2222.9933016643
3	556	149	2224.3007021355
3	557	150	2225.6097298778
3	558	151	2226.9244005416
3	559	152	2228.22902368
3	560	153	2229.5484123996
3	561	154	2230.8569284687
3	562	155	2232.1640145736
3	563	156	2233.485128942
3	564	157	2234.8297294968
3	565	158	2236.1670066806
3	566	159	2237.5171196476
3	567	160	2238.8646841051
3	568	161	2240.2017875987
3	569	162	2241.5565440542
3	570	163	2242.8866609401
3	571	164	2244.2226371146
3	572	165	2245.5527404449
3	573	166	2246.8870260934
3	574	167	2247.9920962735
3	575	168	2248.9117526502
4	4	3	2334.0525058916
4	5	4	2334.0525058916
4	6	5	2333.6929094656
4	7	6	2333.2747875563
4	8	7	2332.8566892883
4	9	8	2332.4389943161
4	10	9	2332.0220469793
4	11	10	2331.6039372319
4	12	11	2331.1867879253
4	13	12	2330.7674879709
4	14	13	2330.3473004489
4	15	14	2329.9332434698
4	17	15	2329.5156939668
4	36	16	2329.0955023633
4	75	17	2328.6752185559
4	208	18	2328.2562452053
4	209	19	2327.8385663203
4	210	20	2327.4182511281
4	211	21	2327.0020938843
4	212	22	2326.5826859209
4	213	23	2326.1623734083
4	214	24	2325.7445771134
4	215	25	2325.3225451502
4	216	26	2324.9054095661
4	217	27	2324.487202606
4	218	28	2324.0686783026
4	219	29	2323.6504636884
4	220	30	2323.2302955077
4	221	31	2322.8118406405
4	222	32	2322.3920292365
4	223	33	2321.9732301172
4	224	34	2321.5573252513
4	225	35	2321.1355524642
4	226	36	2320.715376584
4	227	37	2320.299373667
4	228	38	2319.8826283108
4	229	39	2319.4648724096
4	230	40	2319.0477289274
4	231	41	2318.6301357977
4	232	42	2318.2095274426
4	233	43	2317.7927501725
4	234	44	2317.368846296
4	235	45	2316.9467847272
4	236	46	2316.5281798393
4	237	47	2316.1068502746
4	238	48	2315.6902617162
4	239	49	2315.2734080796
4	240	50	2314.8530729143
4	241	51	2314.4372369944
4	242	52	2314.0198721763
4	243	53	2313.6005021822
4	244	54	2313.183028844
4	246	55	2312.7682437826
4	267	56	2312.3503439798
4	268	57	2311.932623506
4	269	58	2311.5155979887
4	270	59	2311.0989506019
4	271	60	2310.6775846922
4	272	61	2310.2582833483
4	273	62	2309.8357413989
4	274	63	2309.422007717
4	275	64	2309.003171387
4	276	65	2308.584472462
4	277	66	2308.1665031175
4	278	67	2307.7474785172
4	279	68	2307.3284674868
4	280	69	2306.9125376697
4	281	70	2306.4912271969
4	282	71	2306.0750923905
4	283	72	2305.6583220844
4	284	73	2305.2414637197
4	285	74	2304.8221494942
4	286	75	2304.4005121784
4	287	76	2303.9843297728
4	288	77	2303.5670568568
4	289	78	2303.4476594263
4	290	79	2303.4476594263
4	291	80	2303.4476594263
4	292	81	2303.4476594263
4	293	82	2303.4476594263
4	294	83	2303.4476594263
4	295	84	2303.2188109942
4	296	85	2302.8145018554
4	297	86	2302.4131931409
4	298	87	2302.0121231089
4	299	88	2301.6085617221
4	300	89	2301.2086649578
4	301	90	2300.8108235798
4	302	91	2300.4070404302
4	303	92	2300.0029309436
4	304	93	2299.6018405442
4	305	94	2299.1950849761
4	307	95	2298.7933532666
4	324	96	2298.3918030236
4	325	97	2297.987253528
4	326	98	2297.5853765625
4	327	99	2297.1815453308
4	328	100	2296.7818250295
4	330	101	2296.3844273274
4	331	102	2295.981317777
4	367	103	2295.5817096821
4	400	104	2295.1813682282
4	499	105	2294.7924944104
4	500	106	2294.4021821163
4	501	107	2294.0151627474
4	502	108	2293.6301080647
4	503	109	2293.2427166473
4	504	110	2292.8522531365
4	505	111	2292.4671570657
4	506	112	2292.0764083378
4	507	113	2291.6873885821
4	508	114	2291.297876509
4	509	115	2290.9120659752
4	510	116	2290.5243596323
4	511	117	2290.1335217195
4	512	118	2289.7454179387
4	513	119	2289.3567567394
4	514	120	2288.969953533
4	515	121	2288.5830831942
4	516	122	2288.1937829651
4	517	123	2287.8058109591
4	518	124	2287.4178841424
4	519	125	2287.0326897874
4	520	126	2286.6466833113
4	521	127	2286.2589356817
4	522	128	2285.8724565935
4	523	129	2285.4822371449
4	524	130	2285.0956660764
4	525	131	2284.7104753956
4	526	132	2284.3240215287
4	527	133	2283.9346426266
4	528	134	2283.5482824524
4	530	135	2283.1611949323
4	543	136	2282.7744955433
4	544	137	2282.38512053
4	545	138	2281.9974330928
4	546	139	2281.6089756953
4	547	140	2281.2233401894
4	548	141	2280.8337496637
4	549	142	2280.4450599116
4	550	143	2280.0561909486
4	551	144	2279.6682444307
4	552	145	2279.278596912
4	553	146	2278.8865209942
4	554	147	2278.4967558301
4	555	148	2278.1589046454
4	556	149	2277.8289144828
4	557	150	2277.4985135942
4	558	151	2277.1666884223
4	559	152	2276.8373992633
4	560	153	2276.5043832459
4	561	154	2276.1741115044
4	562	155	2275.8442006884
4	563	156	2275.5385221071
4	564	157	2275.3905215776
4	565	158	2275.2433271335
4	566	159	2275.0947198514
4	567	160	2274.9463930844
4	568	161	2274.7992177585
4	569	162	2274.6500993664
4	570	163	2274.8054777182
4	571	164	2275.0399841744
4	572	165	2275.2734597589
4	573	166	2275.5076694738
4	574	167	2276.1722575253
4	575	168	2277.1626567002
5	4	3	2456.1131246374
5	5	4	2456.1131246374
5	6	5	2454.8228984375
5	7	6	2453.5263853338
5	8	7	2452.244543843
5	9	8	2450.9664679368
5	10	9	2449.67579416
5	11	10	2448.3927706581
5	12	11	2447.0973750106
5	13	12	2445.8172103211
5	14	13	2444.5210288415
5	15	14	2443.228378189
5	17	15	2441.9359673452
5	36	16	2440.6439736414
5	75	17	2439.3530680286
5	208	18	2438.0504695288
5	209	19	2436.7609541254
5	210	20	2435.4656219992
5	211	21	2434.1692311386
5	212	22	2432.8769131
5	213	23	2431.5686364088
5	214	24	2430.2790322419
5	215	25	2428.9887400808
5	216	26	2427.7015084425
5	217	27	2426.413574165
5	218	28	2425.1331384252
5	219	29	2423.8423447594
5	220	30	2422.5499850228
5	221	31	2421.2604916997
5	222	32	2419.9592072694
5	223	33	2418.6644237452
5	224	34	2417.3761729548
5	225	35	2416.086124628
5	226	36	2414.7879754762
5	227	37	2413.4868106124
5	228	38	2412.1867032305
5	229	39	2410.8942491736
5	230	40	2409.6030383134
5	231	41	2408.305977851
5	232	42	2407.0036018156
5	233	43	2405.7151690447
5	234	44	2404.4301750248
5	235	45	2403.1300606529
5	236	46	2401.8257928135
5	237	47	2400.535719455
5	238	48	2399.2411097231
5	239	49	2397.9327881763
5	240	50	2396.6502269083
5	241	51	2395.370122859
5	242	52	2394.0783935433
5	243	53	2392.7799241115
5	244	54	2391.489394752
5	246	55	2390.2072814174
5	267	56	2388.9289994272
5	268	57	2387.6305991734
5	269	58	2386.3461623775
5	270	59	2385.0499082429
5	271	60	2383.7462408017
5	272	61	2382.4492321965
5	273	62	2381.1630778408
5	274	63	2379.8767376748
5	275	64	2378.5959842117
5	276	65	2377.3066374624
5	277	66	2376.0132577963
5	278	67	2374.7286131443
5	279	68	2373.4401990067
5	280	69	2372.1494351029
5	281	70	2370.8575510671
5	282	71	2369.5646474959
5	283	72	2368.2774124752
5	284	73	2366.9762583394
5	285	74	2365.6942613788
5	286	75	2364.4022749033
5	287	76	2363.1015645312
5	288	77	2361.8144273307
5	289	78	2360.5171158173
5	290	79	2359.2232318306
5	291	80	2357.9267221794
5	292	81	2356.6345207131
5	293	82	2355.3386015207
5	294	83	2354.0517514297
5	295	84	2352.7576319309
5	296	85	2351.4640638604
5	297	86	2350.1848624654
5	298	87	2348.8989829625
5	299	88	2347.612692845
5	300	89	2346.3271754451
5	301	90	2345.0359745208
5	302	91	2343.7422064914
5	303	92	2342.4493800742
5	304	93	2341.155935867
5	305	94	2339.8712150922
5	307	95	2338.5881279711
5	324	96	2337.2993255884
5	325	97	2336.008033326
5	326	98	2334.726909894
5	327	99	2333.4371624771
5	328	100	2332.1490003066
5	330	101	2330.8557264363
5	331	102	2329.5721726496
5	367	103	2328.2746640225
5	400	104	2326.9783253543
5	499	105	2325.6882174533
5	500	106	2324.3885250794
5	501	107	2323.0949465937
5	502	108	2321.813821952
5	503	109	2320.5311262662
5	504	110	2319.2376444392
5	505	111	2317.9463800764
5	506	112	2316.6627899924
5	507	113	2315.379228054
5	508	114	2314.0982822439
5	509	115	2312.8006298051
5	510	116	2311.5067206145
5	511	117	2310.2258942162
5	512	118	2308.9359355723
5	513	119	2307.6449832299
5	514	120	2306.3565052888
5	515	121	2305.0633713529
5	516	122	2303.7621964386
5	517	123	2302.4752354851
5	518	124	2301.1793615604
5	519	125	2299.8899823954
5	520	126	2298.5837871612
5	521	127	2297.2827602372
5	522	128	2295.9901942807
5	523	129	2294.7076043391
5	524	130	2293.406614117
5	525	131	2292.1159766614
5	526	132	2290.8170463216
5	527	133	2289.5321509435
5	528	134	2288.2998075803
5	530	135	2287.5951001956
5	543	136	2287.2847344065
5	544	137	2287.1027036561
5	545	138	2287.1025105621
5	546	139	2287.1025105621
5	547	140	2287.1025105621
5	548	141	2287.1025105621
5	549	142	2287.1025105621
5	550	143	2287.1025105621
5	551	144	2287.1025105621
5	552	145	2287.1025105621
5	553	146	2287.1025105621
5	554	147	2287.1025105621
5	555	148	2287.1025105621
5	556	149	2287.1025105621
5	557	150	2286.328047315
5	558	151	2284.9989271439
5	559	152	2283.6665666372
5	560	153	2282.3275877324
5	561	154	2281.0022558571
5	562	155	2279.678597968
5	563	156	2278.342246036
5	564	157	2277.014003361
5	565	158	2275.7678428532
5	566	159	2274.6881688922
5	567	160	2273.6200420492
5	568	161	2272.629778076
5	569	162	2272.0077072603
5	570	163	2271.385837883
5	571	164	2270.7655917394
5	572	165	2270.2423991072
5	573	166	2269.8270716858
5	574	167	2269.4064579718
5	575	168	2268.9877611149
6	4	3	2283.1094638243
6	5	4	2283.1094638243
6	6	5	2283.5230969591
6	7	6	2283.9399548468
6	8	7	2284.3520954835
6	9	8	2284.7630254009
6	10	9	2285.1780058147
6	11	10	2285.5905264944
6	12	11	2286.000783291
6	13	12	2286.4055705683
6	14	13	2286.8154223445
6	15	14	2287.2241576754
6	17	15	2287.632817179
6	36	16	2288.0413447832
6	75	17	2288.4495283336
6	208	18	2288.8614091677
6	209	19	2289.2691531348
6	210	20	2289.6787363461
6	211	21	2290.0886543284
6	212	22	2290.4972844871
6	213	23	2290.9109607617
6	214	24	2291.3187327958
6	215	25	2291.7267223732
6	216	26	2292.1337442152
6	217	27	2292.5409882313
6	218	28	2292.9458612145
6	219	29	2293.3540093673
6	220	30	2293.7626527109
6	221	31	2294.1703896962
6	222	32	2294.5818550223
6	223	33	2294.9912647659
6	224	34	2295.3986088632
6	225	35	2295.8065213404
6	226	36	2296.2169952933
6	227	37	2296.6284228126
6	228	38	2297.0395159567
6	229	39	2297.4481891242
6	230	40	2297.8564691937
6	231	41	2298.2665989038
6	232	42	2298.6784093948
6	233	43	2299.0858110342
6	234	44	2299.4921253426
6	235	45	2299.903220697
6	236	46	2300.3156293752
6	237	47	2300.7235497674
6	238	48	2301.132904558
6	239	49	2301.5465950159
6	240	50	2301.9521400897
6	241	51	2302.3569081926
6	242	52	2302.7653521974
6	243	53	2303.1759274227
6	244	54	2303.5839920021
6	246	55	2303.9893954397
6	267	56	2304.3935874085
6	268	57	2304.8041407598
6	269	58	2305.2102788744
6	270	59	2305.6201536241
6	271	60	2306.0327836805
6	272	61	2306.4445443926
6	273	62	2306.8528592113
6	274	63	2307.2612330191
6	275	64	2307.6678332189
6	276	65	2308.0771615253
6	277	66	2308.4877701599
6	278	67	2308.8956056936
6	279	68	2309.3046379242
6	280	69	2309.7144161339
6	281	70	2310.1245499514
6	282	71	2310.5350074404
6	283	72	2310.9436653372
6	284	73	2311.356742129
6	285	74	2311.7679030045
6	286	75	2312.1827670034
6	287	76	2312.6004322937
6	288	77	2313.0137391636
6	289	78	2313.4303130617
6	290	79	2313.8457863619
6	291	80	2314.2621027776
6	292	81	2314.6770358112
6	293	82	2315.0931626273
6	294	83	2315.5063773047
6	295	84	2315.9219262292
6	296	85	2316.337298087
6	297	86	2316.7480567259
6	298	87	2317.1609597422
6	299	88	2317.5739946091
6	300	89	2317.9838067263
6	301	90	2318.392151043
6	302	91	2318.8013072107
6	303	92	2319.210165592
6	304	93	2319.6192193504
6	305	94	2320.0255143097
6	307	95	2320.4312926234
6	324	96	2320.8388783975
6	325	97	2321.2472516
6	326	98	2321.652408894
6	327	99	2322.0602935366
6	328	100	2322.4676768426
6	330	101	2322.8766767318
6	331	102	2323.2826026292
6	367	103	2323.6929417668
6	400	104	2324.102910903
6	499	105	2324.5109095494
6	500	106	2324.9219393003
6	501	107	2325.3310355245
6	502	108	2325.736193201
6	503	109	2326.1418477227
6	504	110	2326.5509133784
6	505	111	2326.9592777576
6	506	112	2327.3652151341
6	507	113	2327.7711436095
6	508	114	2328.1762447303
6	509	115	2328.5866293485
6	510	116	2328.9958301587
6	511	117	2329.4008935152
6	512	118	2329.8088449588
6	513	119	2330.217110661
6	514	120	2330.62459383
6	515	121	2331.0335494646
6	516	122	2331.4450480713
6	517	123	2331.8520514905
6	518	124	2332.261873651
6	519	125	2332.6696418334
6	520	126	2333.0827281241
6	521	127	2333.4941799286
6	522	128	2333.9029559388
6	523	129	2334.3085770187
6	524	130	2334.7200172162
6	525	131	2335.128183335
6	526	132	2335.5411757876
6	527	133	2335.956573691
6	528	134	2336.3549818867
6	530	135	2336.5828089729
6	543	136	2336.6831481136
6	544	137	2336.7419974124
6	545	138	2336.7420598384
6	546	139	2336.7420598384
6	547	140	2336.7420598384
6	548	141	2336.7420598384
6	549	142	2336.7420598384
6	550	143	2336.7420598384
6	551	144	2336.7420598384
6	552	145	2336.7420598384
6	553	146	2336.7420598384
6	554	147	2336.7420598384
6	555	148	2336.7420598384
6	556	149	2336.7420598384
6	557	150	2336.9924385186
6	558	151	2337.2698445455
6	559	152	2337.524313399
6	560	153	2337.780046307
6	561	154	2338.0331727552
6	562	155	2337.9488579406
6	563	156	2337.7151461677
6	564	157	2337.4828526057
6	565	158	2337.0423741225
6	566	159	2336.20793584
6	567	160	2335.3824218787
6	568	161	2334.4768740082
6	569	162	2333.2705975569
6	570	163	2332.064711721
6	571	164	2330.8619735468
6	572	165	2329.6141589728
6	573	166	2328.3420921205
6	574	167	2327.0538343856
6	575	168	2325.7714476099
13	5	4	1.3862204565602
13	6	5	1.3582145193424
13	7	6	1.3493320552516
13	8	7	1.35591197767
13	9	8	1.3260661288708
13	10	9	1.3281546554127
13	11	10	1.3277080167609
13	12	11	1.3572132102531
13	13	12	1.338744398559
13	14	13	1.3547035944551
13	15	14	1.3603213600517
13	17	15	1.3524588461183
13	36	16	1.3558826774695
13	75	17	1.3882106644451
13	208	18	1.3516476015664
13	209	19	1.3444427670038
13	210	20	1.3804819529792
13	211	21	1.3871791696874
13	212	22	1.3695990504736
13	213	23	1.3871855972037
13	214	24	1.3339694330999
13	215	25	1.3680535475335
13	216	26	1.3767598342383
13	217	27	1.3270976628701
13	218	28	1.3543210483234
13	219	29	1.3435124196985
13	220	30	1.3629711141079
13	221	31	1.3278907990995
13	222	32	1.3680275222578
13	223	33	1.3684668984529
13	224	34	1.3861116107243
13	225	35	1.3241393095814
13	226	36	1.3271486147682
13	227	37	1.3578557667723
13	228	38	1.3325806518939
13	229	39	1.3314679442879
13	230	40	1.3737734137976
13	231	41	1.363399566536
13	232	42	1.348057838671
13	233	43	1.3795868825724
13	234	44	1.3659305190635
13	235	45	1.3266728340144
13	236	46	1.380706962793
13	237	47	1.3749238876982
13	238	48	1.3396041292678
13	239	49	1.3375341826435
13	240	50	1.3789216272481
13	241	51	1.3624586546212
13	242	52	1.3728954453189
13	243	53	1.3707700661487
13	244	54	1.3249264168391
13	246	55	1.3284827727896
13	267	56	1.3888390999475
13	268	57	1.3372547761375
13	269	58	1.3436481207545
13	270	59	1.3837795871465
13	271	60	1.3504642192533
13	272	61	1.3750083968625
13	273	62	1.3221574972461
13	274	63	1.3738916970518
13	275	64	1.3341924723095
13	276	65	1.3869481736361
13	277	66	1.3659741048953
13	278	67	1.3232416731706
13	279	68	1.3586620726467
13	280	69	1.3766803458889
13	281	70	1.3765738089731
13	282	71	1.3294802943063
13	283	72	1.3414243443953
13	284	73	1.3537865961553
13	285	74	1.3480876074431
13	286	75	1.3392475620074
13	287	76	1.3447698677515
13	288	77	0
13	289	78	0
13	290	79	0
13	291	80	0
13	292	81	0
13	293	82	0
13	294	83	1.2792264513398
13	295	84	1.3791029828846
13	296	85	1.3356598697202
13	297	86	1.319499444556
13	298	87	1.3521406754929
13	299	88	1.3517755535819
13	300	89	1.3387395300055
13	301	90	1.3840406730338
13	302	91	1.3803347469042
13	303	92	1.3480910745824
13	304	93	1.386833276079
13	305	94	1.3777091764981
13	307	95	1.3297692055898
13	324	96	1.3756109584453
13	325	97	1.3402636272238
13	326	98	1.3817185264715
13	327	99	1.387892420187
13	328	100	1.3219430287265
13	330	101	1.3486055371565
13	331	102	1.3480415429674
13	367	103	1.3765474591896
13	400	104	1.3587260344421
13	499	105	1.3810754892054
13	500	106	1.3759511446147
13	501	107	1.3219408910178
13	502	108	1.3813993276239
13	503	109	1.3487186427584
13	504	110	1.3438563643043
13	505	111	1.3782176009328
13	506	112	1.3820667928505
13	507	113	1.3574642392955
13	508	114	1.329752931132
13	509	115	1.3326637271287
13	510	116	1.3238289704249
13	511	117	1.3594090412436
13	512	118	1.3195931953992
13	513	119	1.3855501517214
13	514	120	1.345912011489
13	515	121	1.3588010536235
13	516	122	1.3435932688299
13	517	123	1.3382628120113
13	518	124	1.3599328334385
13	519	125	1.3378187943049
13	520	126	1.3247755668514
13	521	127	1.3255562175214
13	522	128	1.3888254920312
13	523	129	1.3860716586674
13	524	130	1.3222342254368
13	525	131	1.3672593777624
13	526	132	1.3655783157931
13	527	133	1.3359782420513
13	528	134	1.3389184205153
13	530	135	1.341359788429
13	543	136	1.3329543259331
13	544	137	1.3833916906959
13	545	138	1.3413293604228
13	546	139	1.3654570762689
13	547	140	1.3439934279692
13	548	141	1.3346734497787
13	549	142	1.3662518363142
13	550	143	1.3585855926794
13	551	144	1.3384717547322
13	552	145	1.3648247805799
13	553	146	1.346433273494
13	554	147	1.345271209187
13	555	148	1.343313645856
13	556	149	1.3559938382403
13	557	150	1.3850032637129
13	558	151	1.3752877310132
13	559	152	1.3682838462895
13	560	153	1.3353024450609
13	561	154	1.3621201650595
13	562	155	1.3304578306108
13	563	156	1.3376044493473
13	564	157	1.3559119792545
13	565	158	1.331844423904
13	566	159	1.3673463561119
13	567	160	1.3829013446715
13	568	161	1.35406001319
13	569	162	1.3730936041166
13	570	163	1.3659161605432
13	571	164	1.3806790708461
13	572	165	1.3490320543416
13	573	166	1.3416737066776
13	574	167	1.3300985989432
13	575	168	1.3571811524485
14	5	4	1.363631196291
14	6	5	1.3375511401844
14	7	6	1.388562813744
14	8	7	1.3459160721525
14	9	8	1.3304763798725
14	10	9	1.3733385637008
14	11	10	1.3672363974426
14	12	11	1.3227228015118
14	13	12	1.3641935600673
14	14	13	1.3229639707101
14	15	14	1.3259336459709
14	17	15	1.3572124608294
14	36	16	1.3440576221425
14	75	17	1.3777403595547
14	208	18	1.3610236460388
14	209	19	1.35483990674
14	210	20	1.3682947037645
14	211	21	1.3367524399978
14	212	22	1.3673346648931
14	213	23	1.3630083976022
14	214	24	1.3868680549785
14	215	25	1.349806727489
14	216	26	1.3215123747391
14	217	27	1.349717753215
14	218	28	1.3826227095787
14	219	29	1.3254172767079
14	220	30	1.3388522555599
14	221	31	1.3283956576682
14	222	32	1.3331463793293
14	223	33	1.3387895758044
14	224	34	1.3871699250821
14	225	35	1.3646974479424
14	226	36	1.364082818036
14	227	37	1.3747172181482
14	228	38	1.3271794795583
14	229	39	1.3462195791201
14	230	40	1.3398568745955
14	231	41	1.3751903144455
14	232	42	1.3477166480637
14	233	43	1.3299760232136
14	234	44	1.370442183753
14	235	45	1.3813261290165
14	236	46	1.3683368168454
14	237	47	1.3195837497511
14	238	48	1.3871821510353
14	239	49	1.3404631772331
14	240	50	1.3674633364846
14	241	51	1.3719048882841
14	242	52	1.334172517349
14	243	53	1.3369428612835
14	244	54	1.3286726016021
14	246	55	1.3287406452421
14	267	56	1.3683408350658
14	268	57	1.3363689426559
14	269	58	1.3671117630697
14	270	59	1.371176126316
14	271	60	1.3553153473347
14	272	61	1.3686535543174
14	273	62	1.3452974356349
14	274	63	1.3531510497301
14	275	64	1.3530836635457
14	276	65	1.325057569128
14	277	66	1.3675324973883
14	278	67	1.3498565199714
14	279	68	1.3206301056198
14	280	69	1.3327743513219
14	281	70	1.3460984029451
14	282	71	1.3353053605533
14	283	72	1.3399491536418
14	284	73	1.3404355280444
14	285	74	1.3284652924469
14	286	75	1.3315499433116
14	287	76	1.3859382215176
14	288	77	1.3801971071937
14	289	78	1.3768615809709
14	290	79	1.3864430688005
14	291	80	1.3211962204756
14	292	81	1.3549692730238
14	293	82	1.3858428871026
14	294	83	1.3321649206369
14	295	84	1.3833008898817
14	296	85	1.3818005743087
14	297	86	1.3482873008858
14	298	87	1.3752158339937
14	299	88	1.3478620427001
14	300	89	1.385713312112
14	301	90	1.3801976432539
14	302	91	1.346868796633
14	303	92	1.3878080750065
14	304	93	1.3207843861245
14	305	94	1.3207592900209
14	307	95	1.3454386889417
14	324	96	1.3560909454504
14	325	97	1.3210666252417
14	326	98	1.3412173776467
14	327	99	1.3883023513255
14	328	100	1.3507145661182
14	330	101	1.3808214755166
14	331	102	1.3802025166094
14	367	103	1.3804748988575
14	400	104	1.3292534787292
14	499	105	1.3504885192702
14	500	106	1.3385160798336
14	501	107	1.350124934575
14	502	108	1.3760879422544
14	503	109	1.3505199965018
14	504	110	1.3404710772092
14	505	111	1.3721836878782
14	506	112	1.3231247633747
14	507	113	1.380897402592
14	508	114	1.3604568521906
14	509	115	1.3382090171055
14	510	116	1.326789093372
14	511	117	1.3242983279633
14	512	118	1.3647183086464
14	513	119	1.3240502459101
14	514	120	1.3263556336137
14	515	121	1.3727390814812
14	516	122	1.3274390037501
14	517	123	1.3559635768211
14	518	124	1.354001408569
14	519	125	1.357458001892
14	520	126	1.3475509358816
14	521	127	1.3202779376944
14	522	128	1.3203734499014
14	523	129	1.383624704047
14	524	130	1.3706820471756
14	525	131	1.3749266300066
14	526	132	1.369322676037
14	527	133	1.1057375298145
14	528	134	0.50321414483261
14	530	135	0.20933307865158
14	543	136	0.15201279275607
14	544	137	0
14	545	138	0
14	546	139	0
14	547	140	0
14	548	141	0
14	549	142	0
14	550	143	0
14	551	144	0
14	552	145	0
14	553	146	0
14	554	147	0
14	555	148	0
14	556	149	1.3888888888889
14	557	150	1.3573700927211
14	558	151	1.3322453778205
14	559	152	1.35542262082
14	560	153	1.3571327006017
14	561	154	1.372100659064
14	562	155	1.3743269345044
14	563	156	1.3758157506204
14	564	157	1.3607262637621
14	565	158	1.3589209915598
14	566	159	1.368552349676
14	567	160	1.3830063345894
14	568	161	1.3606895430712
14	569	162	1.3639763841153
14	570	163	1.3576163775643
14	571	164	1.3654096450126
14	572	165	1.3291794747056
14	573	166	1.3299271829601
14	574	167	1.3453431852556
14	575	168	1.3286863451584
17	6	5	-0.028005937217838
17	7	6	-0.0088824640907761
17	8	7	0.0065799224183947
17	9	8	-0.029845848799192
17	10	9	0.0020885265419364
17	11	10	-0.00044663865183892
17	12	11	0.029505193492191
17	13	12	-0.018468811694119
17	14	13	0.015959195896155
17	15	14	0.0056177655965763
17	17	15	-0.0078625139334085
17	36	16	0.0034238313512309
17	75	17	0.032327986975563
17	208	18	-0.036563062878688
17	209	19	-0.007204834562597
17	210	20	0.036039185975419
17	211	21	0.0066972167082391
17	212	22	-0.017580119213866
17	213	23	0.017586546730147
17	214	24	-0.053216164103813
17	215	25	0.034084114433628
17	216	26	0.0087062867047887
17	217	27	-0.049662171368254
17	218	28	0.027223385453302
17	219	29	-0.010808628624848
17	220	30	0.019458694409372
17	221	31	-0.035080315008397
17	222	32	0.04013672315826
17	223	33	0.00043937619516821
17	224	34	0.01764471227135
17	225	35	-0.061972301142911
17	226	36	0.0030093051868283
17	227	37	0.030707152004147
17	228	38	-0.025275114878443
17	229	39	-0.0011127076059994
17	230	40	0.042305469509706
17	231	41	-0.010373847261589
17	232	42	-0.015341727865032
17	233	43	0.031529043901375
17	234	44	-0.013656363508845
17	235	45	-0.039257685049152
17	236	46	0.054034128778666
17	237	47	-0.0057830750948697
17	238	48	-0.035319758430382
17	239	49	-0.0020699466242351
17	240	50	0.041387444604576
17	241	51	-0.01646297262697
17	242	52	0.010436790697794
17	243	53	-0.0021253791702394
17	244	54	-0.045843649309568
17	246	55	0.0035563559504226
17	267	56	0.060356327157933
17	268	57	-0.051584323809948
17	269	58	0.0063933446169055
17	270	59	0.040131466392065
17	271	60	-0.033315367893212
17	272	61	0.024544177609237
17	273	62	-0.052850899616412
17	274	63	0.051734199805651
17	275	64	-0.039699224742233
17	276	65	0.052755701326532
17	277	66	-0.020974068740745
17	278	67	-0.042732431724693
17	279	68	0.035420399476101
17	280	69	0.01801827324218
17	281	70	-0.00010653691586193
17	282	71	-0.047093514666712
17	283	72	0.011944050088964
17	284	73	0.012362251759947
17	285	74	-0.0056989887121341
17	286	75	-0.008840045435742
17	287	76	0.0055223057441049
17	288	77	-1.3447698677515
17	289	78	0
17	290	79	0
17	291	80	0
17	292	81	0
17	293	82	0
17	294	83	1.2792264513398
17	295	84	0.099876531544841
17	296	85	-0.043443113164459
17	297	86	-0.016160425164142
17	298	87	0.032641230936861
17	299	88	-0.00036512191096949
17	300	89	-0.013036023576408
17	301	90	0.045301143028256
17	302	91	-0.0037059261295427
17	303	92	-0.032243672321783
17	304	93	0.038742201496562
17	305	94	-0.0091240995809332
17	307	95	-0.047939970908273
17	324	96	0.045841752855469
17	325	97	-0.0353473312215
17	326	98	0.041454899247684
17	327	99	0.0061738937155396
17	328	100	-0.065949391460486
17	330	101	0.026662508429985
17	331	102	-0.00056399418907738
17	367	103	0.028505916222154
17	400	104	-0.017821424747429
17	499	105	0.022349454763268
17	500	106	-0.0051243445907152
17	501	107	-0.05401025359687
17	502	108	0.05945843660609
17	503	109	-0.03268068486553
17	504	110	-0.0048622784541092
17	505	111	0.034361236628481
17	506	112	0.0038491919177532
17	507	113	-0.024602553554966
17	508	114	-0.027711308163513
17	509	115	0.0029107959966899
17	510	116	-0.0088347567038403
17	511	117	0.035580070818671
17	512	118	-0.03981584584431
17	513	119	0.065956956322124
17	514	120	-0.039638140232354
17	515	121	0.0128890421345
17	516	122	-0.01520778479365
17	517	123	-0.0053304568185317
17	518	124	0.021670021427175
17	519	125	-0.022114039133562
17	520	126	-0.013043227453535
17	521	127	0.00078065066999344
17	522	128	0.063269274509771
17	523	129	-0.00275383336379
17	524	130	-0.063837433230623
17	525	131	0.045025152325656
17	526	132	-0.001681061969268
17	527	133	-0.029600073741878
17	528	134	0.0029401784639858
17	530	135	0.0024413679137878
17	543	136	-0.0084054624959309
17	544	137	0.05043736476283
17	545	138	-0.042062330273135
17	546	139	0.024127715846084
17	547	140	-0.021463648299687
17	548	141	-0.0093199781905342
17	549	142	0.031578386535532
17	550	143	-0.0076662436347559
17	551	144	-0.020113837947267
17	552	145	0.026353025847735
17	553	146	-0.018391507085956
17	554	147	-0.0011620643070072
17	555	148	-0.0019575633309108
17	556	149	0.012680192384222
17	557	150	0.029009425472597
17	558	151	-0.0097155326996776
17	559	152	-0.0070038847237204
17	560	153	-0.032981401228527
17	561	154	0.026817719998588
17	562	155	-0.03166233444871
17	563	156	0.0071466187364422
17	564	157	0.01830752990726
17	565	158	-0.024067555350484
17	566	159	0.035501932207909
17	567	160	0.015554988559517
17	568	161	-0.028841331481494
17	569	162	0.019033590926685
17	570	163	-0.0071774435734067
17	571	164	0.014762910302832
17	572	165	-0.031647016504495
17	573	166	-0.0073583476639922
17	574	167	-0.01157510773434
17	575	168	0.027082553505251
18	6	5	1.1665845543948
18	7	6	1.1724302479925
18	8	7	1.1777896323603
18	9	8	1.1646466470641
18	10	9	1.1749551177512
18	11	10	1.1741219326646
18	12	11	1.185353720759
18	13	12	1.1688439493568
18	14	13	1.1807909872598
18	15	14	1.1776961561177
18	17	15	1.1729084175129
18	36	16	1.1767568488281
18	75	17	1.1880300316144
18	208	18	1.1635212895003
18	209	19	1.1727459669105
18	210	20	1.1888275806604
18	211	21	1.1794030579771
18	212	22	1.1705040591947
18	213	23	1.1830438125888
18	214	24	1.1574616857216
18	215	25	1.1874689941921
18	216	26	1.1795447049397
18	217	27	1.1583516266016
18	218	28	1.1844474016789
18	219	29	1.1715353768196
18	220	30	1.1823753427052
18	221	31	1.1630472923368
18	222	32	1.1894630240669
18	223	33	1.1763964918277
18	224	34	1.1830063096073
18	225	35	1.1543145034666
18	226	36	1.1752000929618
18	227	37	1.185782947719
18	228	38	1.1663851400762
18	229	39	1.1740910182074
18	230	40	1.1905168055276
18	231	41	1.1725958856224
18	232	42	1.1702723669869
18	233	43	1.1872766219419
18	234	44	1.1716323883285
18	235	45	1.1616626173626
18	236	46	1.1948283323222
18	237	47	1.1746501770371
18	238	48	1.1634417863396
18	239	49	1.1740764588916
18	240	50	1.1905152691818
18	241	51	1.1705529842649
18	242	52	1.1799207222675
18	243	53	1.1756617566012
18	244	54	1.1594910962424
18	246	55	1.1754412183779
18	267	56	1.197446951293
18	268	57	1.1581055668974
18	269	58	1.1771119666071
18	270	59	1.19038178395
18	271	60	1.1645310330107
18	272	61	1.1847039349907
18	273	62	1.1571539812847
18	274	63	1.1936457064317
18	275	64	1.1618159365433
18	276	65	1.1947866749274
18	277	66	1.1692253831969
18	278	67	1.160419790374
18	279	68	1.1873715174174
18	280	69	1.1826301924371
18	281	70	1.1766115510281
18	282	71	1.1592622228571
18	283	72	1.1787946046455
18	284	73	1.1795692100208
18	285	74	1.1734065289335
18	286	75	1.1719740001202
18	287	76	1.176886075203
18	288	77	0.973
18	289	78	0.973
18	290	79	0.973
18	291	80	0.973
18	292	81	0.973
18	293	82	0.973
18	294	83	1.5662805611674
18	295	84	1.2099655785634
18	296	85	1.1606682738201
18	297	86	1.1687258750965
18	298	87	1.1860922999912
18	299	88	1.1753188887185
18	300	89	1.1705965480084
18	301	90	1.192121407749
18	302	91	1.1755974873698
18	303	92	1.1647825922691
18	304	93	1.1900959227211
18	305	94	1.173672806251
18	307	95	1.1590017549423
18	324	96	1.1917975025362
18	325	97	1.163459408876
18	326	98	1.1907020277522
18	327	99	1.1792639547899
18	328	100	1.1529732372829
18	330	101	1.1839490009764
18	331	102	1.1750725936626
18	367	103	1.1861023890736
18	400	104	1.1699409879567
18	499	105	1.1843052024954
18	500	106	1.1749172766056
18	501	107	1.1567768302263
18	502	108	1.1966769596856
18	503	109	1.1646662586441
18	504	110	1.1734770856372
18	505	111	1.1881401558464
18	506	112	1.1781968543987
18	507	113	1.1676664546414
18	508	114	1.1654838386969
18	509	115	1.1754412066661
18	510	116	1.171257166958
18	511	117	1.1874666210286
18	512	118	1.1612071344974
18	513	119	1.1991088463896
18	514	120	1.1622948063782
18	515	121	1.180001112018
18	516	122	1.1701146337611
18	517	123	1.1730600218298
18	518	124	1.182937715913
18	519	125	1.1676276850718
18	520	126	1.1699576330858
18	521	127	1.1744093806329
18	522	128	1.1984210733388
18	523	129	1.1761901942746
18	524	130	1.1536557907806
18	525	131	1.1910289242698
18	526	132	1.1755574992587
18	527	133	1.1651375101261
18	528	134	1.1757598948543
18	530	135	1.1757193621526
18	543	136	1.1718203146434
18	544	137	1.19379507412
18	545	138	1.1613315790273
18	546	139	1.1840446647006
18	547	140	1.1681063817784
18	548	141	1.1716064505857
18	549	142	1.1865412938774
18	550	143	1.1732597449341
18	551	144	1.1683012362554
18	552	145	1.1847421146665
18	553	146	1.1692095632292
18	554	147	1.1747440364606
18	555	148	1.174391637718
18	556	149	1.1797872876022
18	557	150	1.1867409198912
18	558	151	1.1733640215839
18	559	152	1.1739330840411
18	560	153	1.1640212585855
18	561	154	1.1847456189281
18	562	155	1.1642466226445
18	563	156	1.1770509249832
18	564	157	1.1816219188792
18	565	158	1.166741342728
18	566	159	1.1878959177586
18	567	160	1.1821396282228
18	568	161	1.1661374511557
18	569	162	1.1827756983449
18	570	163	1.1737645039134
18	571	164	1.1817593600497
18	572	165	1.1650151300823
18	573	166	1.1725661738423
18	574	167	1.1706708943898
18	575	168	1.1845595312901
19	6	5	-0.026080056106568
19	7	6	0.051011673559616
19	8	7	-0.042646741591549
19	9	8	-0.015439692279971
19	10	9	0.042862183828321
19	11	10	-0.0061021662582386
19	12	11	-0.044513595930766
19	13	12	0.041470758555483
19	14	13	-0.041229589357196
19	15	14	0.0029696752608288
19	17	15	0.031278814858524
19	36	16	-0.013154838686912
19	75	17	0.033682737412164
19	208	18	-0.01671671351586
19	209	19	-0.0061837392988513
19	210	20	0.013454797024476
19	211	21	-0.031542263766621
19	212	22	0.030582224895221
19	213	23	-0.0043262672908086
19	214	24	0.023859657376306
19	215	25	-0.037061327489533
19	216	26	-0.02829435274988
19	217	27	0.028205378475832
19	218	28	0.032904956363685
19	219	29	-0.057205432870736
19	220	30	0.013434978851971
19	221	31	-0.010456597891688
19	222	32	0.0047507216610636
19	223	33	0.0056431964751229
19	224	34	0.048380349277674
19	225	35	-0.022472477139672
19	226	36	-0.00061462990642114
19	227	37	0.010634400112192
19	228	38	-0.047537738589906
19	229	39	0.019040099561809
19	230	40	-0.0063627045245893
19	231	41	0.035333439850042
19	232	42	-0.027473666381815
19	233	43	-0.017740624850073
19	234	44	0.040466160539331
19	235	45	0.010883945263534
19	236	46	-0.012989312171056
19	237	47	-0.048753067094367
19	238	48	0.067598401284259
19	239	49	-0.046718973802247
19	240	50	0.027000159251555
19	241	51	0.004441551799472
19	242	52	-0.03773237093507
19	243	53	0.0027703439344704
19	244	54	-0.0082702596814164
19	246	55	6.8043639960935e-005
19	267	56	0.039600189823735
19	268	57	-0.03197189240988
19	269	58	0.030742820413757
19	270	59	0.0040643632463697
19	271	60	-0.015860778981328
19	272	61	0.013338206982654
19	273	62	-0.023356118682487
19	274	63	0.0078536140952361
19	275	64	-6.7386184430918e-005
19	276	65	-0.028026094417631
19	277	66	0.042474928260263
[...]
74	1385	462	1.1975128541516
74	1386	463	1.1541806284975
74	1387	464	1.1846659984459
74	1388	465	1.1707425153131
74	1389	466	1.1889679438166
74	1390	467	1.1789958831433
74	1391	468	1.160508604021
74	1392	469	1.179198924167
74	1393	470	1.1797882842535
74	1394	471	1.1766368468418
74	1395	472	1.1635415975412
74	1396	473	1.181764841498
74	1397	474	1.1744063863313
74	1398	475	1.1877060792145
74	1399	476	1.1798922847228
74	1400	477	1.1645084069999
74	1401	478	1.1729270721647
74	1402	479	1.1799881257585
74	1404	480	1.1679208721397
74	1405	481	1.174377787765
74	1438	482	1.1696944906443
74	1473	483	1.1839497866362
74	1490	484	1.1877997378415
74	1491	485	1.1669847484363
74	1492	486	1.1818086459907
74	1493	487	1.1692707787109
74	1494	488	1.1705102239237
74	1495	489	1.1718298629438
74	1496	490	1.1746618776536
74	1497	491	1.1890968888083
74	1498	492	1.1743756201685
74	1499	493	1.1791273725203
74	1500	494	1.1792348257469
74	1501	495	1.1677994955234
74	1502	496	1.1744833956704
74	1503	497	1.1823437046032
74	1504	498	1.1651754797767
74	1505	499	1.1740933137862
74	1506	500	1.1742766769793
74	1507	501	1.186416876796
80	1241	445	2455.9832922548
80	1242	446	2455.9832922548
80	1243	447	2454.6887262399
80	1244	448	2453.4056050262
80	1245	449	2452.1359797322
80	1246	450	2450.8613421904
80	1247	451	2449.5749391609
80	1248	452	2448.276274079
80	1249	453	2446.9804161674
80	1250	454	2445.6775016616
80	1252	455	2444.3913167785
80	1273	456	2443.1009068533
80	1304	457	2441.8098245295
80	1337	458	2440.5136955978
80	1382	459	2439.2145462941
80	1383	460	2437.9177699687
80	1384	461	2436.6189939921
80	1385	462	2435.3211811126
80	1386	463	2434.0356614982
80	1387	464	2432.7504350219
80	1388	465	2431.4589683135
80	1389	466	2430.1789465496
80	1390	467	2428.8863190777
80	1391	468	2427.5928822263
80	1392	469	2426.3003033214
80	1393	470	2425.0162549676
80	1394	471	2423.7228348224
80	1395	472	2422.4316056086
80	1396	473	2421.1477780823
80	1397	474	2419.8485612275
80	1398	475	2418.5592356678
80	1399	476	2417.2626386292
80	1400	477	2415.964257659
80	1401	478	2414.6774360473
80	1402	479	2413.3909293226
80	1404	480	2412.0990849082
80	1405	481	2410.813318957
80	1438	482	2409.5209453487
80	1473	483	2408.2350923671
80	1490	484	2406.9487641195
80	1491	485	2405.646933959
80	1492	486	2404.35546791
80	1493	487	2403.0695274227
80	1494	488	2401.777165757
80	1495	489	2400.4909983997
80	1496	490	2399.198356487
80	1497	491	2397.9117870391
80	1498	492	2396.6179249775
80	1499	493	2395.3251864846
80	1500	494	2394.0302426798
80	1501	495	2392.7342305762
80	1502	496	2391.4374859704
80	1503	497	2390.1515649969
80	1504	498	2388.8687557087
80	1505	499	2387.5792756072
80	1506	500	2386.2875465124
80	1507	501	2385.0001488989
81	1241	445	2283.1505076098
81	1242	446	2283.1505076098
81	1243	447	2283.5662363139
81	1244	448	2283.9787884102
81	1245	449	2284.3870012672
81	1246	450	2284.7968256737
81	1247	451	2285.2104329469
81	1248	452	2285.6279827436
81	1249	453	2286.0377656044
81	1250	454	2286.4497463593
81	1252	455	2286.856437218
81	1273	456	2287.2644640324
81	1304	457	2287.6727034587
81	1337	458	2288.0825386194
81	1382	459	2288.4933288198
81	1383	460	2288.9033686859
81	1384	461	2289.3140408405
81	1385	462	2289.7244084644
81	1386	463	2290.1308889655
81	1387	464	2290.5372767766
81	1388	465	2290.9456377451
81	1389	466	2291.3503798293
81	1390	467	2291.7591078306
81	1391	468	2292.1680917571
81	1392	469	2292.5768044015
81	1393	470	2292.9828196909
81	1394	471	2293.391798335
81	1395	472	2293.8000842079
81	1396	473	2294.2060296718
81	1397	474	2294.6168412318
81	1398	475	2295.0245251705
81	1399	476	2295.4345083462
81	1400	477	2295.8450556
81	1401	478	2296.2519477919
81	1402	479	2296.6587404167
81	1404	480	2297.0672208156
81	1405	481	2297.4737792083
81	1438	482	2297.882426938
81	1473	483	2298.2890128497
81	1490	484	2298.6957490401
81	1491	485	2299.1073869257
81	1492	486	2299.5157476858
81	1493	487	2299.9223612667
81	1494	488	2300.3310052201
81	1495	489	2300.7376905372
81	1496	490	2301.1464231046
81	1497	491	2301.5532355624
81	1498	492	2301.9623539401
81	1499	493	2302.3711170461
81	1500	494	2302.7805774704
81	1501	495	2303.1903756901
81	1502	496	2303.6004055265
81	1503	497	2304.0070129371
81	1504	498	2304.4126364348
81	1505	499	2304.8203692395
81	1506	500	2305.2288131744
81	1507	501	2305.6358874977
82	1242	446	1.3631267420876
82	1243	447	1.3506248385238
82	1244	448	1.3303966374143
82	1245	449	1.3460874608589
82	1246	450	1.320137526135
82	1247	451	1.3648656800312
82	1248	452	1.3349212688788
82	1249	453	1.3608067084311
82	1250	454	1.3350137333166
82	1252	455	1.3326293624252
82	1273	456	1.341144953476
82	1304	457	1.3885945396841
82	1337	458	1.3826930173349
82	1382	459	1.3681353481176
82	1383	460	1.3822522607289
82	1384	461	1.3675272387142
82	1385	462	1.3349696596075
82	1386	463	1.3307688302949
82	1387	464	1.3502683434086
82	1388	465	1.3629783900655
82	1389	466	1.3343786438377
82	1390	467	1.3337101094819
82	1391	468	1.3290519846002
82	1392	469	1.3302484127861
82	1393	470	1.3632587201654
82	1394	471	1.3419022775068
82	1395	472	1.3682982502117
82	1396	473	1.3587992964797
82	1397	474	1.3746112840373
82	1398	475	1.3888060906579
82	1399	476	1.3857365028202
82	1400	477	1.3813094142986
82	1401	478	1.3586316874555
82	1402	479	1.3446201285761
82	1404	480	1.3871605707552
82	1405	481	1.3359099435264
82	1438	482	1.3624788202611
82	1473	483	1.371740781922
82	1490	484	1.3852833532049
82	1491	485	1.3795462770698
82	1492	486	1.3579083901035
82	1493	487	1.3817168975786
82	1494	488	1.3395368715283
82	1495	489	1.3378497028154
82	1496	490	1.3826358376698
82	1497	491	1.3596243689082
82	1498	492	1.3825948710211
82	1499	493	1.3707995217313
82	1500	494	1.3304833559313
82	1501	495	1.3608655939202
82	1502	496	1.3208971324396
82	1503	497	1.3600195776154
82	1504	498	1.3826738879046
82	1505	499	1.352109874133
82	1506	500	1.3640695111664
82	1507	501	1.3297621357843
83	1243	447	-0.012501903563841
83	1244	448	-0.020228201109502
83	1245	449	0.015690823444553
83	1246	450	-0.025949934723839
83	1247	451	0.044728153896156
83	1248	452	-0.029944411152327
83	1249	453	0.025885439552237
83	1250	454	-0.025792975114503
83	1252	455	-0.0023843708913773
83	1273	456	0.0085155910508345
83	1304	457	0.04744958620803
83	1337	458	-0.0059015223491266
83	1382	459	-0.014557669217336
83	1383	460	0.014116912611321
83	1384	461	-0.014725022014722
83	1385	462	-0.032557579106651
83	1386	463	-0.004200829312645
83	1387	464	0.019499513113664
83	1388	465	0.012710046656947
83	1389	466	-0.028599746227782
83	1390	467	-0.00066853435580705
83	1391	468	-0.004658124881745
83	1392	469	0.001196428185924
83	1393	470	0.0330103073793
83	1394	471	-0.021356442658645
83	1395	472	0.026395972704955
83	1396	473	-0.0094989537319634
83	1397	474	0.015811987557552
83	1398	475	0.014194806620556
83	1399	476	-0.0030695878376719
83	1400	477	-0.004427088521576
83	1401	478	-0.022677726843136
83	1402	479	-0.014011558879348
83	1404	480	0.042540442179112
83	1405	481	-0.051250627228809
83	1438	482	0.026568876734624
83	1473	483	0.0092619616609431
83	1490	484	0.01354257128292
83	1491	485	-0.0057370761351194
83	1492	486	-0.021637886966346
83	1493	487	0.023808507475122
83	1494	488	-0.042180026050321
83	1495	489	-0.0016871687128313
83	1496	490	0.044786134854399
83	1497	491	-0.023011468761575
83	1498	492	0.022970502112811
83	1499	493	-0.011795349289767
83	1500	494	-0.040316165799999
83	1501	495	0.030382237988912
83	1502	496	-0.039968461480587
83	1503	497	0.039122445175761
83	1504	498	0.022654310289201
83	1505	499	-0.030564013771557
83	1506	500	0.011959637033417
83	1507	501	-0.034307375382115
84	1243	447	1.1713123677006
84	1244	448	1.1679101833527
84	1245	449	1.1802507895553
84	1246	450	1.1656399158308
84	1247	451	1.1907885477012
84	1248	452	1.1649827605078
84	1249	453	1.1843673486104
84	1250	454	1.1663222753946
84	1252	455	1.1737388926277
84	1273	456	1.1776720507078
84	1304	457	1.1931122082214
84	1337	458	1.1749787551054
84	1382	459	1.1714354556058
84	1383	460	1.1816264834261
84	1384	461	1.1713527834443
84	1385	462	1.1641440410748
84	1386	463	1.1730667292806
84	1387	464	1.181709794775
84	1388	465	1.1801589506515
84	1389	466	1.1653926567228
84	1390	467	1.1743424504488
84	1391	468	1.1728383327781
84	1392	469	1.1747722019589
84	1393	470	1.1868430331111
84	1394	471	1.1680499465985
84	1395	472	1.184947694968
84	1396	473	1.1726696097752
84	1397	474	1.1817894098311
84	1398	475	1.1819944955196
84	1399	476	1.1760686202331
84	1400	477	1.1754040780793
84	1401	478	1.1683466934628
84	1402	479	1.1705485612214
84	1404	480	1.1913847153205
84	1405	481	1.1581641801248
84	1438	482	1.1846837134087
84	1473	483	1.1794731282003
84	1490	484	1.1815928783911
84	1491	485	1.1748844419194
84	1492	486	1.1686556786026
84	1493	487	1.1848257934748
84	1494	488	1.1612243917569
84	1495	489	1.1742150945909
84	1496	490	1.1918659474901
84	1497	491	1.1682803062319
84	1498	492	1.1845944215371
84	1499	493	1.1724685804999
84	1500	494	1.1614728510967
84	1501	495	1.1858453955428
84	1502	496	1.1612095711371
84	1503	497	1.1886626866861
84	1504	498	1.1844933497703
84	1505	499	1.1654945912798
84	1506	500	1.1799688005477
84	1507	501	1.1633703664633
85	1246	450	2452.4571908744
85	1247	451	2452.4571908744
85	1248	452	2451.7622817855
85	1249	453	2450.7121852033
85	1250	454	2449.5200539625
85	1252	455	2448.2709605636
85	1273	456	2447.0086988053
85	1304	457	2445.726574977
85	1337	458	2444.4457310934
85	1382	459	2443.1526008541
85	1383	460	2441.8492491718
85	1384	461	2440.5504051433
85	1385	462	2439.2505770012
85	1386	463	2437.9573595615
85	1387	464	2436.6648581922
85	1388	465	2435.3751568544
85	1389	466	2434.0986829356
85	1390	467	2432.801805546
85	1391	468	2431.5115637065
85	1392	469	2430.2208089901
85	1393	470	2428.9315641225
85	1394	471	2427.6402539031
85	1395	472	2426.3477815074
85	1396	473	2425.0621949591
85	1397	474	2423.7711538337
85	1398	475	2422.49109953
85	1399	476	2421.1954726128
85	1400	477	2419.9011404945
85	1401	478	2418.6078086687
85	1402	479	2417.317945969
85	1404	480	2416.017701179
85	1405	481	2414.7236607789
85	1438	482	2413.4425430434
85	1473	483	2412.1532956313
85	1490	484	2410.8694520105
85	1491	485	2409.577671514
85	1492	486	2408.2922399282
85	1493	487	2406.9940791913
85	1494	488	2405.703540091
85	1495	489	2404.4110314309
85	1496	490	2403.1173786317
85	1497	491	2401.8393764696
85	1498	492	2400.5520081175
85	1499	493	2399.2539938102
85	1500	494	2397.9591147685
85	1501	495	2396.6557795296
85	1502	496	2395.3611465786
85	1503	497	2394.0710546454
85	1504	498	2392.790203594
85	1505	499	2391.5054191914
85	1506	500	2390.2139139875
85	1507	501	2388.9184048954
86	1246	450	2284.2837247189
86	1247	451	2284.2837247189
86	1248	452	2284.5071534942
86	1249	453	2284.8447829727
86	1250	454	2285.2280797627
86	1252	455	2285.6296911574
86	1273	456	2286.0288226519
86	1304	457	2286.4342294076
86	1337	458	2286.8392314455
86	1382	459	2287.2481184215
86	1383	460	2287.6602374114
86	1384	461	2288.070931084
86	1385	462	2288.4819359326
86	1386	463	2288.8908504813
86	1387	464	2289.299538609
86	1388	465	2289.7073413685
86	1389	466	2290.1109616263
86	1390	467	2290.5210334489
86	1391	468	2290.9290071146
86	1392	469	2291.3371429517
86	1393	470	2291.7448013756
86	1394	471	2292.1531128624
86	1395	472	2292.5617918287
86	1396	473	2292.9682934943
86	1397	474	2293.3765198937
86	1398	475	2293.781272267
86	1399	476	2294.190948691
86	1400	477	2294.6002157003
86	1401	478	2295.0091664178
86	1402	479	2295.4170201998
86	1404	480	2295.8281567923
86	1405	481	2296.2373315606
86	1438	482	2296.6424201903
86	1473	483	2297.0500794187
86	1490	484	2297.4560299717
86	1491	485	2297.8644901599
86	1492	486	2298.2709428264
86	1493	487	2298.6814204426
86	1494	488	2299.0894881021
86	1495	489	2299.4981785351
86	1496	490	2299.9072307442
86	1497	491	2300.3113342316
86	1498	492	2300.7183993024
86	1499	493	2301.1288306176
86	1500	494	2301.5382705638
86	1501	495	2301.9503843544
86	1502	496	2302.3597464868
86	1503	497	2302.7676727523
86	1504	498	2303.1726770567
86	1505	499	2303.5789250843
86	1506	500	2303.9872982251
86	1507	501	2304.3969373929
87	1247	451	0.95421209778056
87	1248	452	1.1909635227839
87	1249	453	1.2627284575827
87	1250	454	1.3407958857368
87	1252	455	1.3247230119198
87	1273	456	1.3332879925967
87	1304	457	1.3170125484655
87	1337	458	1.3736306674111
87	1382	459	1.3222296447987
87	1383	460	1.3404540642362
87	1384	461	1.3813671424936
87	1385	462	1.3811110259842
87	1386	463	1.3634274249504
87	1387	464	1.3567344018522
87	1388	465	1.319325187146
87	1389	466	1.3802183010588
87	1390	467	1.3851651070946
87	1391	468	1.3507757499203
87	1392	469	1.3766768813513
87	1393	470	1.3223908807591
87	1394	471	1.3306308179051
87	1395	472	1.3711499367175
87	1396	473	1.3389451204311
87	1397	474	1.3572741279809
87	1398	475	1.380637500078
87	1399	476	1.3569968877251
87	1400	477	1.342189746838
87	1401	478	1.3806007527313
87	1402	479	1.3617268586725
87	1404	480	1.3597198886033
87	1405	481	1.3561956803855
87	1438	482	1.3791075087126
87	1473	483	1.3352951087878
87	1490	484	1.3768854743575
87	1491	485	1.3353619493831
87	1492	486	1.3501936773171
87	1493	487	1.3732258174111
87	1494	488	1.3268972244643
87	1495	489	1.3709044156142
87	1496	490	1.3494684058661
87	1497	491	1.3680493765707
87	1498	492	1.3897663570072
87	1499	493	1.3230409884346
87	1500	494	1.3797814642458
87	1501	495	1.3747464443828
87	1502	496	1.3400300897261
87	1503	497	1.3489492118439
87	1504	498	1.3510076817767
87	1505	499	1.3824015161537
87	1506	500	1.3502288349364
87	1507	501	1.3459279080901
88	1248	452	0.23675142500335
88	1249	453	0.071764934798748
88	1250	454	0.07806742815412
88	1252	455	-0.016072873816942
88	1273	456	0.0085649806768511
88	1304	457	-0.01627544413121
88	1337	458	0.056618118945592
88	1382	459	-0.051401022612418
88	1383	460	0.018224419437512
88	1384	461	0.040913078257472
88	1385	462	-0.0002561165094368
88	1386	463	-0.017683601033808
88	1387	464	-0.0066930230982147
88	1388	465	-0.037409214706219
88	1389	466	0.060893113912831
88	1390	467	0.0049468060357634
88	1391	468	-0.034389357174228
88	1392	469	0.025901131430979
88	1393	470	-0.054286000592153
88	1394	471	0.0082399371459156
88	1395	472	0.040519118812397
88	1396	473	-0.032204816286331
88	1397	474	0.018329007549797
88	1398	475	0.023363372097092
88	1399	476	-0.023640612352887
88	1400	477	-0.014807140887159
88	1401	478	0.038411005893289
88	1402	479	-0.018873894058721
88	1404	480	-0.0020069700692165
88	1405	481	-0.0035242082178493
88	1438	482	0.022911828327118
88	1473	483	-0.043812399924791
88	1490	484	0.041590365569678
88	1491	485	-0.041523524974388
88	1492	486	0.014831727934011
88	1493	487	0.023032140094033
88	1494	488	-0.046328592946866
88	1495	489	0.044007191149904
88	1496	490	-0.021436009748046
88	1497	491	0.018580970704555
88	1498	492	0.021716980436495
88	1499	493	-0.06672536857257
88	1500	494	0.056740475811178
88	1501	495	-0.0050350198629758
88	1502	496	-0.034716354656719
88	1503	497	0.0089191221178113
88	1504	498	0.0020584699327568
88	1505	499	0.031393834377055
88	1506	500	-0.032172681217272
88	1507	501	-0.0043009268463772
89	1248	452	1.2355610488702
89	1249	453	1.1929393460901
89	1250	454	1.2001287322512
89	1252	455	1.1689879978936
89	1273	456	1.1772888827851
89	1304	457	1.1685778881183
89	1337	458	1.1952465203033
89	1382	459	1.157618591645
89	1383	460	1.1807733915843
89	1384	461	1.1905010032288
89	1385	462	1.176782913284
89	1386	463	1.1701952913935
89	1387	464	1.17349113487
89	1388	465	1.1619618542812
89	1389	466	1.1970796598696
89	1390	467	1.1787172458552
89	1391	468	1.1641940942611
89	1392	469	1.1852453762629
89	1393	470	1.1567050189387
89	1394	471	1.1770496737648
89	1395	472	1.1897718370223
89	1396	473	1.1644204252087
89	1397	474	1.1817013590255
89	1398	475	1.1846188477489
89	1399	476	1.1679610316872
89	1400	477	1.1701809658024
89	1401	478	1.1896235694019
89	1402	479	1.1697290026479
89	1404	480	1.1751674498553
89	1405	481	1.1745014466692
89	1438	482	1.1843855415853
89	1473	483	1.1605354776917
89	1490	484	1.1904629995812
89	1491	485	1.1612746401967
89	1492	486	1.1801869224901
89	1493	487	1.1841060614173
89	1494	488	1.1594102777446
89	1495	489	1.1909098847614
89	1496	490	1.1683539146786
89	1497	491	1.1823573716267
89	1498	492	1.1845640468904
89	1499	493	1.1527618617576
89	1500	494	1.1956710799508
89	1501	495	1.174889612618
89	1502	496	1.1636537883721
89	1503	497	1.1781996440486
89	1504	498	1.176070629692
89	1505	499	1.187390228266
89	1506	500	1.1648932851518
89	1507	501	1.1737577127013
90	1401	478	2188.5035901594
90	1402	479	2188.5035901594
90	1404	480	2189.4837317934
90	1405	481	2191.0388796398
90	1438	482	2193.2326767476
90	1473	483	2196.0195646398
90	1490	484	2199.4093976008
90	1491	485	2203.3856142172
90	1492	486	2207.9736337494
90	1493	487	2213.1193742003
90	1494	488	2218.3430850339
90	1495	489	2223.5632893674
90	1496	490	2228.6543230939
90	1497	491	2232.8065176802
90	1498	492	2235.9437332497
90	1499	493	2238.1412080699
90	1500	494	2239.5335840223
90	1501	495	2240.3073271772
90	1502	496	2240.6742153202
90	1503	497	2240.8354024557
90	1504	498	2240.9114846879
90	1505	499	2240.9114846879
90	1506	500	2240.9114846879
90	1507	501	2240.9114846879
91	1401	478	2088.9331501194
91	1402	479	2088.9331501194
91	1404	480	2091.891557713
91	1405	481	2096.6904863314
91	1438	482	2103.460180768
91	1473	483	2112.0600551101
91	1490	484	2122.5205180467
91	1491	485	2134.7904637998
91	1492	486	2148.9501125271
91	1493	487	2164.83321091
91	1494	488	2180.9569765539
91	1495	489	2197.0699188602
91	1496	490	2212.784156747
91	1497	491	2225.6005270534
91	1498	492	2235.2840126498
91	1499	493	2242.0668477145
91	1500	494	2246.3646245747
91	1501	495	2248.7528986763
91	1502	496	2249.8853538644
91	1503	497	2250.3828820929
91	1504	498	2250.6177212945
91	1505	499	2250.6177212945
91	1506	500	2250.6177212945
91	1507	501	2250.6177212945
92	1402	479	3.969482968361
92	1404	480	6.0122883070236
92	1405	481	7.9605299795278
92	1438	482	9.9670314028113
92	1473	483	11.834291567858
92	1490	484	13.761727728089
92	1491	485	15.775464870536
92	1492	486	16.871689674045
92	1493	487	16.969813546041
92	1494	488	16.90736473895
92	1495	489	15.395763120294
92	1496	490	11.905021420292
92	1497	491	8.780775857403
92	1498	492	5.9068914846812
92	1499	493	3.5037948595751
92	1500	494	1.8013181439239
92	1501	495	0.78307831484284
92	1502	496	0.44392224153096
92	1503	497	0
92	1504	498	0
92	1505	499	0
92	1506	500	0
92	1507	501	0
93	1404	480	2.0428053386626
93	1405	481	1.9482416725042
93	1438	482	2.0065014232835
93	1473	483	1.8672601650469
93	1490	484	1.927436160231
93	1491	485	2.0137371424469
93	1492	486	1.0962248035087
93	1493	487	0.098123871996069
93	1494	488	-0.062448807090988
93	1495	489	-1.5116016186559
93	1496	490	-3.4907417000018
93	1497	491	-3.1242455628892
93	1498	492	-2.8738843727218
93	1499	493	-2.4030966251061
93	1500	494	-1.7024767156513
93	1501	495	-1.018239829081
93	1502	496	-0.33915607331188
93	1503	497	-0.44392224153096
93	1504	498	0
93	1505	499	0
93	1506	500	0
93	1507	501	0
94	1404	480	4.3800557276476
94	1405	481	5.2782950655378
94	1438	482	6.5020037128652
94	1473	483	7.1595407862841
94	1490	484	8.4071190078575
94	1491	485	9.889685868177
94	1492	486	6.8248831160246
94	1493	487	2.7813674839281
94	1494	488	2.1176310927057
94	1495	489	0.973
94	1496	490	0.973
94	1497	491	0.973
94	1498	492	0.973
94	1499	493	0.973
94	1500	494	0.973
94	1501	495	0.973
94	1502	496	0.973
94	1503	497	0.973
94	1504	498	0.973
94	1505	499	0.973
94	1506	500	0.973
94	1507	501	0.973

