file 12064922 1596130806                                        
version 2
run General-0-20200730-13:38:20-25184
attr configname General
attr datetime 20200730-13:38:20
attr experiment General
attr inifile omnetpp.ini
attr iterationvars ""
attr iterationvarsf ""
attr measurement ""
attr network globcomm.simulation.Thesis
attr processid 25184
attr repetition 0
attr replication #0
attr resultdir results
attr runnumber 0
attr seedset 0
param **.debug false
param **.coreDebug false
param *.playgroundSizeX 3000m
param *.playgroundSizeY 3000m
param *.playgroundSizeZ 500m
param *.annotations.draw true
param *.manager.updateInterval 1s
param *.manager.host "\"localhost\""
param *.manager.port 9999
param *.manager.autoShutdown true
param *.manager.launchConfig "xmldoc(\"erlangen.launchd.xml\")"
param Thesis.rsu[0].mobility.x 2000
param Thesis.rsu[0].mobility.y 2000
param Thesis.rsu[0].mobility.z 3
param *.rsu[*].applType "\"globcomm.src.RSU11p\""
param *.rsu[*].appl.headerLength "80 bit"
param *.rsu[*].appl.sendBeacons false
param *.rsu[*].appl.dataOnSch false
param *.rsu[*].appl.beaconInterval 1s
param *.rsu[*].appl.beaconUserPriority 7
param *.rsu[*].appl.dataUserPriority 5
param *.connectionManager.sendDirect true
param *.connectionManager.maxInterfDist 400m
param *.connectionManager.drawMaxIntfDist true
param *.**.nic.mac1609_4.useServiceChannel false
param *.**.nic.mac1609_4.txPower 30mW
param *.**.nic.mac1609_4.bitrate 6Mbps
param *.**.nic.phy80211p.sensitivity -89dBm
param *.**.nic.phy80211p.useThermalNoise true
param *.**.nic.phy80211p.thermalNoise -110dBm
param *.**.nic.phy80211p.decider "xmldoc(\"config.xml\")"
param *.**.nic.phy80211p.analogueModels "xmldoc(\"config.xml\")"
param *.**.nic.phy80211p.usePropagationDelay true
param *.**.nic.phy80211p.antenna "xmldoc(\"antenna.xml\", \"/root/Antenna[@id='monopole']\")"
param *.node[*].applType "\"globcomm.src.MyThesisApp\""
param *.node[*].appl.headerLength "80 bit"
param *.node[*].appl.sendBeacons false
param *.node[*].appl.dataOnSch false
param *.node[*].appl.beaconInterval 1s
param *.node[*].veinsmobilityType.debug true
param *.node[*].veinsmobility.x 0
param *.node[*].veinsmobility.y 0
param *.node[*].veinsmobility.z 1.895
param *.node[*].veinsmobility.accidentCount 0
param *.node[*].veinsmobility.accidentStart 75s
param *.node[*].veinsmobility.accidentDuration 50s
param Thesis.manager.numVehicles 100

vector 0 Thesis.node[0].veinsmobility posx ETV
vector 1 Thesis.node[0].veinsmobility posy ETV
vector 2 Thesis.node[0].veinsmobility speed ETV
vector 3 Thesis.node[1].veinsmobility posx ETV
vector 4 Thesis.node[1].veinsmobility posy ETV
vector 5 Thesis.node[2].veinsmobility posx ETV
vector 6 Thesis.node[2].veinsmobility posy ETV
vector 7 Thesis.node[3].veinsmobility posx ETV
vector 8 Thesis.node[3].veinsmobility posy ETV
vector 9 Thesis.node[4].veinsmobility posx ETV
vector 10 Thesis.node[4].veinsmobility posy ETV
vector 11 Thesis.node[5].veinsmobility posx ETV
vector 12 Thesis.node[5].veinsmobility posy ETV
vector 13 Thesis.node[0].veinsmobility acceleration ETV
vector 14 Thesis.node[0].veinsmobility co2emission ETV
vector 15 Thesis.node[6].veinsmobility posx ETV
vector 16 Thesis.node[6].veinsmobility posy ETV
vector 17 Thesis.node[7].veinsmobility posx ETV
vector 18 Thesis.node[7].veinsmobility posy ETV
vector 19 Thesis.node[1].veinsmobility speed ETV
vector 20 Thesis.node[2].veinsmobility speed ETV
vector 21 Thesis.node[3].veinsmobility speed ETV
vector 22 Thesis.node[4].veinsmobility speed ETV
vector 23 Thesis.node[5].veinsmobility speed ETV
vector 24 Thesis.node[8].veinsmobility posx ETV
vector 25 Thesis.node[8].veinsmobility posy ETV
vector 26 Thesis.node[1].veinsmobility acceleration ETV
vector 27 Thesis.node[1].veinsmobility co2emission ETV
vector 28 Thesis.node[2].veinsmobility acceleration ETV
vector 29 Thesis.node[2].veinsmobility co2emission ETV
vector 30 Thesis.node[3].veinsmobility acceleration ETV
vector 31 Thesis.node[3].veinsmobility co2emission ETV
vector 32 Thesis.node[4].veinsmobility acceleration ETV
vector 33 Thesis.node[4].veinsmobility co2emission ETV
vector 34 Thesis.node[5].veinsmobility acceleration ETV
vector 35 Thesis.node[5].veinsmobility co2emission ETV
vector 36 Thesis.node[6].veinsmobility speed ETV
vector 37 Thesis.node[7].veinsmobility speed ETV
vector 38 Thesis.node[6].veinsmobility acceleration ETV
vector 39 Thesis.node[6].veinsmobility co2emission ETV
vector 40 Thesis.node[7].veinsmobility acceleration ETV
vector 41 Thesis.node[7].veinsmobility co2emission ETV
vector 42 Thesis.node[8].veinsmobility speed ETV
vector 43 Thesis.node[8].veinsmobility acceleration ETV
vector 44 Thesis.node[8].veinsmobility co2emission ETV
vector 45 Thesis.node[9].veinsmobility posx ETV
vector 46 Thesis.node[9].veinsmobility posy ETV
vector 47 Thesis.node[10].veinsmobility posx ETV
vector 48 Thesis.node[10].veinsmobility posy ETV
vector 49 Thesis.node[9].veinsmobility speed ETV
vector 50 Thesis.node[9].veinsmobility acceleration ETV
vector 51 Thesis.node[9].veinsmobility co2emission ETV
vector 52 Thesis.node[10].veinsmobility speed ETV
vector 53 Thesis.node[10].veinsmobility acceleration ETV
vector 54 Thesis.node[10].veinsmobility co2emission ETV
vector 55 Thesis.node[11].veinsmobility posx ETV
vector 56 Thesis.node[11].veinsmobility posy ETV
vector 57 Thesis.node[11].veinsmobility speed ETV
vector 58 Thesis.node[12].veinsmobility posx ETV
vector 59 Thesis.node[12].veinsmobility posy ETV
vector 60 Thesis.node[11].veinsmobility acceleration ETV
vector 61 Thesis.node[11].veinsmobility co2emission ETV
vector 62 Thesis.node[13].veinsmobility posx ETV
vector 63 Thesis.node[13].veinsmobility posy ETV
vector 64 Thesis.node[12].veinsmobility speed ETV
vector 65 Thesis.node[14].veinsmobility posx ETV
vector 66 Thesis.node[14].veinsmobility posy ETV
vector 67 Thesis.node[12].veinsmobility acceleration ETV
vector 68 Thesis.node[12].veinsmobility co2emission ETV
vector 69 Thesis.node[13].veinsmobility speed ETV
vector 70 Thesis.node[15].veinsmobility posx ETV
vector 71 Thesis.node[15].veinsmobility posy ETV
vector 72 Thesis.node[13].veinsmobility acceleration ETV
vector 73 Thesis.node[13].veinsmobility co2emission ETV
vector 74 Thesis.node[14].veinsmobility speed ETV
vector 75 Thesis.node[14].veinsmobility acceleration ETV
vector 76 Thesis.node[14].veinsmobility co2emission ETV
vector 77 Thesis.node[15].veinsmobility speed ETV
vector 78 Thesis.node[16].veinsmobility posx ETV
vector 79 Thesis.node[16].veinsmobility posy ETV
vector 80 Thesis.node[15].veinsmobility acceleration ETV
vector 81 Thesis.node[15].veinsmobility co2emission ETV
vector 82 Thesis.node[16].veinsmobility speed ETV
vector 83 Thesis.node[16].veinsmobility acceleration ETV
vector 84 Thesis.node[16].veinsmobility co2emission ETV
vector 85 Thesis.node[17].veinsmobility posx ETV
vector 86 Thesis.node[17].veinsmobility posy ETV
vector 87 Thesis.node[18].veinsmobility posx ETV
vector 88 Thesis.node[18].veinsmobility posy ETV
vector 89 Thesis.node[17].veinsmobility speed ETV
vector 90 Thesis.node[18].veinsmobility speed ETV
vector 91 Thesis.node[17].veinsmobility acceleration ETV
vector 92 Thesis.node[17].veinsmobility co2emission ETV
vector 93 Thesis.node[18].veinsmobility acceleration ETV
vector 94 Thesis.node[18].veinsmobility co2emission ETV
vector 95 Thesis.node[19].veinsmobility posx ETV
vector 96 Thesis.node[19].veinsmobility posy ETV
vector 97 Thesis.node[20].veinsmobility posx ETV
vector 98 Thesis.node[20].veinsmobility posy ETV
vector 99 Thesis.node[21].veinsmobility posx ETV
vector 100 Thesis.node[21].veinsmobility posy ETV
vector 101 Thesis.node[19].veinsmobility speed ETV
vector 102 Thesis.node[20].veinsmobility speed ETV
vector 103 Thesis.node[21].veinsmobility speed ETV
vector 104 Thesis.node[22].veinsmobility posx ETV
vector 105 Thesis.node[22].veinsmobility posy ETV
vector 106 Thesis.node[19].veinsmobility acceleration ETV
vector 107 Thesis.node[19].veinsmobility co2emission ETV
vector 108 Thesis.node[20].veinsmobility acceleration ETV
vector 109 Thesis.node[20].veinsmobility co2emission ETV
vector 110 Thesis.node[21].veinsmobility acceleration ETV
vector 111 Thesis.node[21].veinsmobility co2emission ETV
vector 112 Thesis.node[22].veinsmobility speed ETV
vector 113 Thesis.node[22].veinsmobility acceleration ETV
vector 114 Thesis.node[22].veinsmobility co2emission ETV
vector 115 Thesis.node[23].veinsmobility posx ETV
vector 116 Thesis.node[23].veinsmobility posy ETV
vector 117 Thesis.node[23].veinsmobility speed ETV
vector 118 Thesis.node[23].veinsmobility acceleration ETV
vector 119 Thesis.node[23].veinsmobility co2emission ETV
vector 120 Thesis.node[24].veinsmobility posx ETV
vector 121 Thesis.node[24].veinsmobility posy ETV
vector 122 Thesis.node[25].veinsmobility posx ETV
vector 123 Thesis.node[25].veinsmobility posy ETV
vector 124 Thesis.node[24].veinsmobility speed ETV
vector 125 Thesis.node[24].veinsmobility acceleration ETV
vector 126 Thesis.node[24].veinsmobility co2emission ETV
vector 127 Thesis.node[25].veinsmobility speed ETV
vector 128 Thesis.node[25].veinsmobility acceleration ETV
vector 129 Thesis.node[25].veinsmobility co2emission ETV
vector 130 Thesis.node[26].veinsmobility posx ETV
vector 131 Thesis.node[26].veinsmobility posy ETV
vector 132 Thesis.node[26].veinsmobility speed ETV
vector 133 Thesis.node[27].veinsmobility posx ETV
vector 134 Thesis.node[27].veinsmobility posy ETV
vector 135 Thesis.node[26].veinsmobility acceleration ETV
vector 136 Thesis.node[26].veinsmobility co2emission ETV
vector 137 Thesis.node[28].veinsmobility posx ETV
vector 138 Thesis.node[28].veinsmobility posy ETV
vector 139 Thesis.node[27].veinsmobility speed ETV
vector 140 Thesis.node[29].veinsmobility posx ETV
vector 141 Thesis.node[29].veinsmobility posy ETV
vector 142 Thesis.node[27].veinsmobility acceleration ETV
vector 143 Thesis.node[27].veinsmobility co2emission ETV
vector 144 Thesis.node[28].veinsmobility speed ETV
vector 145 Thesis.node[30].veinsmobility posx ETV
vector 146 Thesis.node[30].veinsmobility posy ETV
vector 147 Thesis.node[28].veinsmobility acceleration ETV
vector 148 Thesis.node[28].veinsmobility co2emission ETV
vector 149 Thesis.node[29].veinsmobility speed ETV
vector 150 Thesis.node[31].veinsmobility posx ETV
vector 151 Thesis.node[31].veinsmobility posy ETV
vector 152 Thesis.node[29].veinsmobility acceleration ETV
vector 153 Thesis.node[29].veinsmobility co2emission ETV
vector 154 Thesis.node[30].veinsmobility speed ETV
vector 155 Thesis.node[30].veinsmobility acceleration ETV
vector 156 Thesis.node[30].veinsmobility co2emission ETV
vector 157 Thesis.node[31].veinsmobility speed ETV
vector 158 Thesis.node[31].veinsmobility acceleration ETV
vector 159 Thesis.node[31].veinsmobility co2emission ETV
vector 160 Thesis.node[32].veinsmobility posx ETV
vector 161 Thesis.node[32].veinsmobility posy ETV
vector 162 Thesis.node[33].veinsmobility posx ETV
vector 163 Thesis.node[33].veinsmobility posy ETV
vector 164 Thesis.node[32].veinsmobility speed ETV
vector 165 Thesis.node[33].veinsmobility speed ETV
vector 166 Thesis.node[32].veinsmobility acceleration ETV
vector 167 Thesis.node[32].veinsmobility co2emission ETV
vector 168 Thesis.node[33].veinsmobility acceleration ETV
vector 169 Thesis.node[33].veinsmobility co2emission ETV
vector 170 Thesis.node[34].veinsmobility posx ETV
vector 171 Thesis.node[34].veinsmobility posy ETV
vector 172 Thesis.node[35].veinsmobility posx ETV
vector 173 Thesis.node[35].veinsmobility posy ETV
vector 174 Thesis.node[34].veinsmobility speed ETV
vector 175 Thesis.node[36].veinsmobility posx ETV
vector 176 Thesis.node[36].veinsmobility posy ETV
vector 177 Thesis.node[37].veinsmobility posx ETV
vector 178 Thesis.node[37].veinsmobility posy ETV
vector 179 Thesis.node[34].veinsmobility acceleration ETV
vector 180 Thesis.node[34].veinsmobility co2emission ETV
vector 181 Thesis.node[35].veinsmobility speed ETV
vector 182 Thesis.node[38].veinsmobility posx ETV
vector 183 Thesis.node[38].veinsmobility posy ETV
vector 184 Thesis.node[35].veinsmobility acceleration ETV
vector 185 Thesis.node[35].veinsmobility co2emission ETV
vector 186 Thesis.node[36].veinsmobility speed ETV
vector 187 Thesis.node[37].veinsmobility speed ETV
vector 188 Thesis.node[36].veinsmobility acceleration ETV
vector 189 Thesis.node[36].veinsmobility co2emission ETV
vector 190 Thesis.node[37].veinsmobility acceleration ETV
vector 191 Thesis.node[37].veinsmobility co2emission ETV
vector 192 Thesis.node[38].veinsmobility speed ETV
vector 193 Thesis.node[38].veinsmobility acceleration ETV
vector 194 Thesis.node[38].veinsmobility co2emission ETV
vector 195 Thesis.node[39].veinsmobility posx ETV
vector 196 Thesis.node[39].veinsmobility posy ETV
vector 197 Thesis.node[40].veinsmobility posx ETV
vector 198 Thesis.node[40].veinsmobility posy ETV
vector 199 Thesis.node[39].veinsmobility speed ETV
vector 200 Thesis.node[41].veinsmobility posx ETV
vector 201 Thesis.node[41].veinsmobility posy ETV
vector 202 Thesis.node[39].veinsmobility acceleration ETV
vector 203 Thesis.node[39].veinsmobility co2emission ETV
vector 204 Thesis.node[40].veinsmobility speed ETV
vector 205 Thesis.node[42].veinsmobility posx ETV
vector 206 Thesis.node[42].veinsmobility posy ETV
vector 207 Thesis.node[40].veinsmobility acceleration ETV
vector 208 Thesis.node[40].veinsmobility co2emission ETV
vector 209 Thesis.node[41].veinsmobility speed ETV
vector 210 Thesis.node[43].veinsmobility posx ETV
vector 211 Thesis.node[43].veinsmobility posy ETV
vector 212 Thesis.node[41].veinsmobility acceleration ETV
vector 213 Thesis.node[41].veinsmobility co2emission ETV
vector 214 Thesis.node[42].veinsmobility speed ETV
vector 215 Thesis.node[42].veinsmobility acceleration ETV
vector 216 Thesis.node[42].veinsmobility co2emission ETV
vector 217 Thesis.node[43].veinsmobility speed ETV
vector 218 Thesis.node[43].veinsmobility acceleration ETV
vector 219 Thesis.node[43].veinsmobility co2emission ETV
vector 220 Thesis.node[44].veinsmobility posx ETV
vector 221 Thesis.node[44].veinsmobility posy ETV
vector 222 Thesis.node[45].veinsmobility posx ETV
vector 223 Thesis.node[45].veinsmobility posy ETV
vector 224 Thesis.node[44].veinsmobility speed ETV
vector 225 Thesis.node[45].veinsmobility speed ETV
vector 226 Thesis.node[44].veinsmobility acceleration ETV
vector 227 Thesis.node[44].veinsmobility co2emission ETV
vector 228 Thesis.node[45].veinsmobility acceleration ETV
vector 229 Thesis.node[45].veinsmobility co2emission ETV
vector 230 Thesis.node[46].veinsmobility posx ETV
vector 231 Thesis.node[46].veinsmobility posy ETV
vector 232 Thesis.node[46].veinsmobility speed ETV
vector 233 Thesis.node[46].veinsmobility acceleration ETV
vector 234 Thesis.node[46].veinsmobility co2emission ETV
vector 235 Thesis.node[47].veinsmobility posx ETV
vector 236 Thesis.node[47].veinsmobility posy ETV
vector 237 Thesis.node[47].veinsmobility speed ETV
vector 238 Thesis.node[47].veinsmobility acceleration ETV
vector 239 Thesis.node[47].veinsmobility co2emission ETV
vector 240 Thesis.node[48].veinsmobility posx ETV
vector 241 Thesis.node[48].veinsmobility posy ETV
vector 242 Thesis.node[48].veinsmobility speed ETV
vector 243 Thesis.node[49].veinsmobility posx ETV
vector 244 Thesis.node[49].veinsmobility posy ETV
vector 245 Thesis.node[48].veinsmobility acceleration ETV
vector 246 Thesis.node[48].veinsmobility co2emission ETV
vector 247 Thesis.node[50].veinsmobility posx ETV
vector 248 Thesis.node[50].veinsmobility posy ETV
vector 249 Thesis.node[49].veinsmobility speed ETV
vector 250 Thesis.node[51].veinsmobility posx ETV
vector 251 Thesis.node[51].veinsmobility posy ETV
vector 252 Thesis.node[49].veinsmobility acceleration ETV
vector 253 Thesis.node[49].veinsmobility co2emission ETV
vector 254 Thesis.node[50].veinsmobility speed ETV
vector 255 Thesis.node[52].veinsmobility posx ETV
vector 256 Thesis.node[52].veinsmobility posy ETV
vector 257 Thesis.node[50].veinsmobility acceleration ETV
vector 258 Thesis.node[50].veinsmobility co2emission ETV
vector 259 Thesis.node[51].veinsmobility speed ETV
vector 260 Thesis.node[51].veinsmobility acceleration ETV
vector 261 Thesis.node[51].veinsmobility co2emission ETV
vector 262 Thesis.node[52].veinsmobility speed ETV
vector 263 Thesis.node[52].veinsmobility acceleration ETV
vector 264 Thesis.node[52].veinsmobility co2emission ETV
vector 265 Thesis.node[53].veinsmobility posx ETV
vector 266 Thesis.node[53].veinsmobility posy ETV
vector 267 Thesis.node[54].veinsmobility posx ETV
vector 268 Thesis.node[54].veinsmobility posy ETV
vector 269 Thesis.node[53].veinsmobility speed ETV
vector 270 Thesis.node[54].veinsmobility speed ETV
vector 271 Thesis.node[53].veinsmobility acceleration ETV
vector 272 Thesis.node[53].veinsmobility co2emission ETV
vector 273 Thesis.node[54].veinsmobility acceleration ETV
vector 274 Thesis.node[54].veinsmobility co2emission ETV
14	17141 2502 4 101447 3 122 120 0.973 12.314960310349 274.65481848279 1511.1901517311
13	19643 2469 4 101447 3 122 120 -3.6355126797222 2.2736147284618 13.238418365748 219.06004047381
2	22112 2317 3 101447 2 122 121 0 19.914479507114 421.33043110019 5020.559696348
1	24429 3346 2 101447 1 122 122 2275.0136717126 2458.5328100417 282085.16906689 652410540.55004
0	27775 3348 2 101447 1 122 122 2050.8270289986 2309.1536700782 272133.02650712 607380489.69266
35	31123 2622 6 101448 5 123 119 0.973 9.8398419610454 263.59499426455 1190.1237903387
34	33745 2726 6 101448 5 123 119 -3.4522340500535 2.5130094848759 -0.10247142786245 255.14933707197
23	36471 2666 5 101448 4 123 120 0 16.688671569103 545.28309490313 5815.1235949378
12	39137 3446 4 101448 3 123 121 2272.0499288651 2351.8315577497 277633.6061314 637077810.73957
11	42583 3441 4 101448 3 123 121 1968.5198650572 2441.8716516492 269457.41420432 601111718.62067
33	46024 2545 6 101449 5 124 120 0.973 11.697006271942 263.71539434203 1385.1329623651
32	48569 2564 6 101449 5 124 120 -2.967875498505 2.1990258042865 14.915900920324 170.8468020068
22	51133 2526 5 101449 4 124 121 0 19.540674462474 417.06303061336 4702.3369519718
10	53659 3447 4 101449 3 124 122 2274.8734922988 2450.7545636179 281891.88926486 651489506.3723
9	57106 3365 4 101449 3 124 122 2050.5610948399 2306.6223567433 271711.96194596 605499563.56472
vector 275 Thesis.node[55].veinsmobility posx ETV
vector 276 Thesis.node[55].veinsmobility posy ETV
vector 277 Thesis.node[55].veinsmobility speed ETV
vector 278 Thesis.node[55].veinsmobility acceleration ETV
vector 279 Thesis.node[55].veinsmobility co2emission ETV
vector 280 Thesis.node[56].veinsmobility posx ETV
vector 281 Thesis.node[56].veinsmobility posy ETV
vector 282 Thesis.node[56].veinsmobility speed ETV
vector 283 Thesis.node[57].veinsmobility posx ETV
vector 284 Thesis.node[57].veinsmobility posy ETV
vector 285 Thesis.node[56].veinsmobility acceleration ETV
vector 286 Thesis.node[56].veinsmobility co2emission ETV
vector 287 Thesis.node[58].veinsmobility posx ETV
vector 288 Thesis.node[58].veinsmobility posy ETV
vector 289 Thesis.node[57].veinsmobility speed ETV
vector 290 Thesis.node[59].veinsmobility posx ETV
vector 291 Thesis.node[59].veinsmobility posy ETV
vector 292 Thesis.node[57].veinsmobility acceleration ETV
vector 293 Thesis.node[57].veinsmobility co2emission ETV
vector 294 Thesis.node[58].veinsmobility speed ETV
vector 295 Thesis.node[58].veinsmobility acceleration ETV
vector 296 Thesis.node[58].veinsmobility co2emission ETV
vector 297 Thesis.node[59].veinsmobility speed ETV
vector 298 Thesis.node[59].veinsmobility acceleration ETV
vector 299 Thesis.node[59].veinsmobility co2emission ETV
vector 300 Thesis.node[60].veinsmobility posx ETV
vector 301 Thesis.node[60].veinsmobility posy ETV
vector 302 Thesis.node[61].veinsmobility posx ETV
vector 303 Thesis.node[61].veinsmobility posy ETV
vector 304 Thesis.node[60].veinsmobility speed ETV
vector 305 Thesis.node[60].veinsmobility acceleration ETV
vector 306 Thesis.node[60].veinsmobility co2emission ETV
vector 307 Thesis.node[61].veinsmobility speed ETV
vector 308 Thesis.node[62].veinsmobility posx ETV
vector 309 Thesis.node[62].veinsmobility posy ETV
vector 310 Thesis.node[61].veinsmobility acceleration ETV
vector 311 Thesis.node[61].veinsmobility co2emission ETV
vector 312 Thesis.node[63].veinsmobility posx ETV
vector 313 Thesis.node[63].veinsmobility posy ETV
vector 314 Thesis.node[62].veinsmobility speed ETV
vector 315 Thesis.node[62].veinsmobility acceleration ETV
vector 316 Thesis.node[62].veinsmobility co2emission ETV
vector 317 Thesis.node[63].veinsmobility speed ETV
vector 318 Thesis.node[63].veinsmobility acceleration ETV
vector 319 Thesis.node[63].veinsmobility co2emission ETV
vector 320 Thesis.node[64].veinsmobility posx ETV
vector 321 Thesis.node[64].veinsmobility posy ETV
vector 322 Thesis.node[65].veinsmobility posx ETV
vector 323 Thesis.node[65].veinsmobility posy ETV
vector 324 Thesis.node[64].veinsmobility speed ETV
vector 325 Thesis.node[66].veinsmobility posx ETV
vector 326 Thesis.node[66].veinsmobility posy ETV
vector 327 Thesis.node[64].veinsmobility acceleration ETV
vector 328 Thesis.node[64].veinsmobility co2emission ETV
vector 329 Thesis.node[65].veinsmobility speed ETV
vector 330 Thesis.node[67].veinsmobility posx ETV
vector 331 Thesis.node[67].veinsmobility posy ETV
vector 332 Thesis.node[65].veinsmobility acceleration ETV
vector 333 Thesis.node[65].veinsmobility co2emission ETV
vector 334 Thesis.node[66].veinsmobility speed ETV
vector 335 Thesis.node[68].veinsmobility posx ETV
vector 336 Thesis.node[68].veinsmobility posy ETV
vector 337 Thesis.node[66].veinsmobility acceleration ETV
vector 338 Thesis.node[66].veinsmobility co2emission ETV
vector 339 Thesis.node[67].veinsmobility speed ETV
vector 340 Thesis.node[67].veinsmobility acceleration ETV
vector 341 Thesis.node[67].veinsmobility co2emission ETV
vector 342 Thesis.node[68].veinsmobility speed ETV
vector 343 Thesis.node[68].veinsmobility acceleration ETV
vector 344 Thesis.node[68].veinsmobility co2emission ETV
vector 345 Thesis.node[69].veinsmobility posx ETV
vector 346 Thesis.node[69].veinsmobility posy ETV
vector 347 Thesis.node[70].veinsmobility posx ETV
vector 348 Thesis.node[70].veinsmobility posy ETV
vector 349 Thesis.node[71].veinsmobility posx ETV
vector 350 Thesis.node[71].veinsmobility posy ETV
vector 351 Thesis.node[69].veinsmobility speed ETV
vector 352 Thesis.node[72].veinsmobility posx ETV
vector 353 Thesis.node[72].veinsmobility posy ETV
vector 354 Thesis.node[69].veinsmobility acceleration ETV
vector 355 Thesis.node[69].veinsmobility co2emission ETV
vector 356 Thesis.node[70].veinsmobility speed ETV
vector 357 Thesis.node[71].veinsmobility speed ETV
vector 358 Thesis.node[70].veinsmobility acceleration ETV
vector 359 Thesis.node[70].veinsmobility co2emission ETV
vector 360 Thesis.node[71].veinsmobility acceleration ETV
vector 361 Thesis.node[71].veinsmobility co2emission ETV
vector 362 Thesis.node[72].veinsmobility speed ETV
vector 363 Thesis.node[72].veinsmobility acceleration ETV
vector 364 Thesis.node[72].veinsmobility co2emission ETV
vector 365 Thesis.node[73].veinsmobility posx ETV
vector 366 Thesis.node[73].veinsmobility posy ETV
vector 367 Thesis.node[73].veinsmobility speed ETV
vector 368 Thesis.node[73].veinsmobility acceleration ETV
vector 369 Thesis.node[73].veinsmobility co2emission ETV
vector 370 Thesis.node[74].veinsmobility posx ETV
vector 371 Thesis.node[74].veinsmobility posy ETV
vector 372 Thesis.node[74].veinsmobility speed ETV
vector 373 Thesis.node[75].veinsmobility posx ETV
vector 374 Thesis.node[75].veinsmobility posy ETV
vector 375 Thesis.node[74].veinsmobility acceleration ETV
vector 376 Thesis.node[74].veinsmobility co2emission ETV
vector 377 Thesis.node[75].veinsmobility speed ETV
vector 378 Thesis.node[75].veinsmobility acceleration ETV
vector 379 Thesis.node[75].veinsmobility co2emission ETV
vector 380 Thesis.node[76].veinsmobility posx ETV
vector 381 Thesis.node[76].veinsmobility posy ETV
vector 382 Thesis.node[76].veinsmobility speed ETV
vector 383 Thesis.node[76].veinsmobility acceleration ETV
vector 384 Thesis.node[76].veinsmobility co2emission ETV
vector 385 Thesis.node[77].veinsmobility posx ETV
vector 386 Thesis.node[77].veinsmobility posy ETV
vector 387 Thesis.node[78].veinsmobility posx ETV
vector 388 Thesis.node[78].veinsmobility posy ETV
vector 389 Thesis.node[77].veinsmobility speed ETV
vector 390 Thesis.node[77].veinsmobility acceleration ETV
vector 391 Thesis.node[77].veinsmobility co2emission ETV
vector 392 Thesis.node[78].veinsmobility speed ETV
vector 393 Thesis.node[79].veinsmobility posx ETV
vector 394 Thesis.node[79].veinsmobility posy ETV
vector 395 Thesis.node[80].veinsmobility posx ETV
vector 396 Thesis.node[80].veinsmobility posy ETV
vector 397 Thesis.node[78].veinsmobility acceleration ETV
vector 398 Thesis.node[78].veinsmobility co2emission ETV
vector 399 Thesis.node[79].veinsmobility speed ETV
vector 400 Thesis.node[80].veinsmobility speed ETV
vector 401 Thesis.node[81].veinsmobility posx ETV
vector 402 Thesis.node[81].veinsmobility posy ETV
vector 403 Thesis.node[79].veinsmobility acceleration ETV
vector 404 Thesis.node[79].veinsmobility co2emission ETV
vector 405 Thesis.node[80].veinsmobility acceleration ETV
vector 406 Thesis.node[80].veinsmobility co2emission ETV
vector 407 Thesis.node[81].veinsmobility speed ETV
vector 408 Thesis.node[81].veinsmobility acceleration ETV
vector 409 Thesis.node[81].veinsmobility co2emission ETV
68	67788 6812 7905 201781 21 250 230 0.973 16.369595730575 399.12210343502 1801.6969378844
67	74600 7457 7905 201781 21 250 230 -2.6126494639053 2.1221614262182 24.058455202692 99.19611306771
64	82057 6936 7904 201781 20 250 231 0.98946455606588 25.047919758758 565.49372025134 4620.2676039512
59	88993 6968 5615 201781 19 250 232 2271.6180554407 2343.8250209761 535140.66946448 1234467173.5464
58	95961 6953 5615 201781 19 250 232 1983.0083409815 2452.3696458608 535551.57782812 1238226179.9734
54	102914 7018 15 201782 14 251 238 0.973 14.843260179535 399.78159856419 1594.3920669643
53	109932 7725 15 201782 14 251 238 -4.2196438935627 2.1989677996537 21.659686203001 125.05518233056
52	117657 7155 14 201782 13 251 239 0.88844935554794 22.548135558549 551.86256321534 4022.1275078387
48	124812 7169 13 201782 12 251 240 2271.5959904116 2343.5880440234 553460.80423761 1276424973.8462
47	131981 7166 13 201782 12 251 240 1994.3263408981 2452.5402548012 553103.05567323 1276776940.7032
vector 410 Thesis.node[82].veinsmobility posx ETV
vector 411 Thesis.node[82].veinsmobility posy ETV
vector 412 Thesis.node[83].veinsmobility posx ETV
vector 413 Thesis.node[83].veinsmobility posy ETV
vector 414 Thesis.node[82].veinsmobility speed ETV
vector 415 Thesis.node[84].veinsmobility posx ETV
vector 416 Thesis.node[84].veinsmobility posy ETV
vector 417 Thesis.node[82].veinsmobility acceleration ETV
vector 418 Thesis.node[82].veinsmobility co2emission ETV
vector 419 Thesis.node[83].veinsmobility speed ETV
vector 420 Thesis.node[83].veinsmobility acceleration ETV
vector 421 Thesis.node[83].veinsmobility co2emission ETV
vector 422 Thesis.node[84].veinsmobility speed ETV
vector 423 Thesis.node[84].veinsmobility acceleration ETV
vector 424 Thesis.node[84].veinsmobility co2emission ETV
94	139960 7098 7916 219474 32 269 238 0.973 14.368193795677 403.19060843678 1717.2627236298
93	147058 7780 7916 219474 32 269 238 -3.283278853228 2.0742084502314 23.126564400602 102.88666044177
90	154838 7216 7915 219474 31 269 239 0.42825051545282 24.155684770707 560.84319922427 4678.9942216185
88	162054 7254 7914 219474 30 269 240 2271.6187697439 2345.7304766508 553305.65196276 1275710659.6785
87	169308 7250 7914 219474 30 269 240 1987.5820740422 2452.3147274068 553464.66714806 1278274914.0992
vector 425 Thesis.node[85].veinsmobility posx ETV
vector 426 Thesis.node[85].veinsmobility posy ETV
vector 427 Thesis.node[86].veinsmobility posx ETV
vector 428 Thesis.node[86].veinsmobility posy ETV
vector 429 Thesis.node[85].veinsmobility speed ETV
vector 430 Thesis.node[85].veinsmobility acceleration ETV
vector 431 Thesis.node[85].veinsmobility co2emission ETV
vector 432 Thesis.node[86].veinsmobility speed ETV
vector 433 Thesis.node[86].veinsmobility acceleration ETV
vector 434 Thesis.node[86].veinsmobility co2emission ETV
vector 435 Thesis.node[87].veinsmobility posx ETV
vector 436 Thesis.node[87].veinsmobility posy ETV
vector 437 Thesis.node[87].veinsmobility speed ETV
vector 438 Thesis.node[87].veinsmobility acceleration ETV
vector 439 Thesis.node[87].veinsmobility co2emission ETV
109	177371 8094 7923 237659 39 322 284 0.973 16.928955191116 461.06092092255 2043.6414360278
108	185465 8456 7923 237659 39 322 284 -3.274142223251 2.5352697271435 26.037427002247 118.9061126279
102	193921 7950 7922 237659 38 322 285 0 27.157837090873 547.25943040903 5162.21881114
98	201871 8685 7921 237659 37 322 286 2271.7937796671 2340.6708784663 658398.96567253 1515804318.4395
97	210556 8691 7921 237659 37 322 286 2003.5094268582 2452.0749936959 657152.52198363 1511961465.5867
439	219247 738 237638 237662 301 325 25 0.973 14.526039194294 157.32562632005 1397.939385475
438	219985 813 237638 237662 301 325 25 -2.8935919125281 2.0375595920207 20.739250271512 75.902611211305
437	220798 830 237637 237662 300 325 26 3.7309016340666 24.491419448453 362.64707847869 5831.5060113117
436	221628 862 234636 237662 299 325 27 2240.5112743148 2342.5243564481 61581.506405157 140481254.03958
435	222490 864 234636 237662 299 325 27 1997.6747742481 2309.6169628508 58995.202832219 129150119.35188
vector 440 Thesis.node[88].veinsmobility posx ETV
vector 441 Thesis.node[88].veinsmobility posy ETV
vector 442 Thesis.node[88].veinsmobility speed ETV
vector 443 Thesis.node[88].veinsmobility acceleration ETV
vector 444 Thesis.node[88].veinsmobility co2emission ETV
vector 445 Thesis.node[89].veinsmobility posx ETV
vector 446 Thesis.node[89].veinsmobility posy ETV
vector 447 Thesis.node[89].veinsmobility speed ETV
vector 448 Thesis.node[89].veinsmobility acceleration ETV
vector 449 Thesis.node[89].veinsmobility co2emission ETV
vector 450 Thesis.node[90].veinsmobility posx ETV
vector 451 Thesis.node[90].veinsmobility posy ETV
vector 452 Thesis.node[90].veinsmobility speed ETV
vector 453 Thesis.node[90].veinsmobility acceleration ETV
vector 454 Thesis.node[90].veinsmobility co2emission ETV
vector 455 Thesis.node[91].veinsmobility posx ETV
vector 456 Thesis.node[91].veinsmobility posy ETV
vector 457 Thesis.node[91].veinsmobility speed ETV
vector 458 Thesis.node[91].veinsmobility acceleration ETV
vector 459 Thesis.node[91].veinsmobility co2emission ETV
27	224438 11209 6 245391 5 402 398 0.973 1.5730907301287 452.22336232808 516.86799041975
26	235647 11819 6 245391 5 402 398 -0.68664465185846 1.2894252510947 -0.011823879128011 4.4018831419779
19	247466 10990 5 245391 4 402 399 0 1.3888888888889 431.75232494042 582.65319340798
4	258456 11670 4 245391 3 402 400 2274.642524789 2482.7884019169 935525.66581887 2189147087.059
3	270126 11666 4 245391 3 402 400 2045.3587506232 2317.2159921305 890059.38292771 1982824500.5285
39	281792 11208 7 245392 6 403 398 0.973 1.264875782063 451.88532531596 515.80042051057
38	293000 11846 7 245392 6 403 398 -0.41688827971923 0.577636888715 0.30556918920215 1.7560542025998
36	304846 11025 6 245392 5 403 399 0 1.3888888888889 430.87119968902 577.13911710541
16	315871 12071 5 245392 4 403 400 2274.7061171205 2482.2855411195 935429.31169926 2188688552.525
15	327942 12078 5 245392 4 403 400 2045.5527121292 2317.0402733575 889934.65242023 1982278218.8556
51	340020 11004 14 245394 13 405 393 0.973 3.0283804149713 448.83579496905 524.59754310069
50	351024 11711 14 245394 13 405 393 -1.076574661138 2.3202087054027 2.4321031446758 16.756352125546
49	362735 10875 13 245394 12 405 394 0 4.0696548675485 427.27182233259 601.2830412024
46	373610 11971 12 245394 11 405 395 2274.7083769693 2480.9764567907 923416.88659118 2159831146.6334
45	385581 11974 12 245394 11 405 395 2050.3381914837 2316.5828292831 879321.41496036 1959669070.352
379	397555 5423 196959 245394 181 405 225 0.973 6.6680181171866 305.33787502478 644.47737495974
378	402978 5183 196959 245394 181 405 225 -2.795629409526 2.4826701687044 9.1456522183156 122.1098777071
377	408161 5072 196958 245394 180 405 226 0 11.43146698527 471.48861139191 4294.1936495417
374	413233 7229 181912 245394 179 405 227 2242.0479028675 2424.9984909552 518322.04196924 1183926194.4409
373	420462 7253 181912 245394 179 405 227 2012.6934962345 2317.5825920681 512518.62445132 1157716139.2893
vector 460 Thesis.node[92].veinsmobility posx ETV
vector 461 Thesis.node[92].veinsmobility posy ETV
vector 462 Thesis.node[92].veinsmobility speed ETV
61	427869 10711 5615 245396 19 407 389 0.973 4.5603488193246 450.00898046148 560.85144592872
60	438580 11471 5615 245396 19 407 389 -1.6344162096519 2.3047332520575 5.2603552039903 36.340994867963
57	450051 10679 863 245396 18 407 390 0 6.5166663971237 427.1250941076 706.92391243954
56	460730 11886 57 245396 17 407 391 2274.6507247857 2477.6548969667 912918.93807267 2132529930.8334
55	472616 11885 57 245396 17 407 391 2049.9716890284 2315.4221493895 869558.93570038 1936018700.333
vector 463 Thesis.node[93].veinsmobility posx ETV
vector 464 Thesis.node[93].veinsmobility posy ETV
vector 465 Thesis.node[94].veinsmobility posx ETV
vector 466 Thesis.node[94].veinsmobility posy ETV
vector 467 Thesis.node[92].veinsmobility acceleration ETV
vector 468 Thesis.node[92].veinsmobility co2emission ETV
84	484822 10417 7910 245397 26 408 383 0.973 4.7571697127094 442.8438300303 553.42223846592
83	495239 11246 7910 245397 26 408 383 -1.3349398816207 2.301190353693 5.8132796630378 45.479119970471
82	506485 10456 7909 245397 25 408 384 0 6.9049526964364 423.37801340856 732.63232042931
79	516941 11709 7908 245397 24 408 385 2274.6683808385 2471.8489899216 897614.29919445 2093684989.7375
78	528650 11710 7908 245397 24 408 385 2050.203179981 2313.4872205809 855538.50869843 1903266827.0536
vector 469 Thesis.node[93].veinsmobility speed ETV
vector 470 Thesis.node[94].veinsmobility speed ETV
vector 471 Thesis.node[95].veinsmobility posx ETV
vector 472 Thesis.node[95].veinsmobility posy ETV
vector 473 Thesis.node[93].veinsmobility acceleration ETV
vector 474 Thesis.node[93].veinsmobility co2emission ETV
vector 475 Thesis.node[94].veinsmobility acceleration ETV
vector 476 Thesis.node[94].veinsmobility co2emission ETV
92	540800 9625 7916 245399 32 410 379 0.973 6.5609612614564 454.73972322491 714.85566070809
91	550425 10170 7916 245399 32 410 379 -2.9939725747361 2.2295499534767 8.6767910181233 93.499662476231
89	560595 9632 7915 245399 31 410 380 0 9.9501800318995 426.72749303192 1406.5259199319
86	570227 11617 7914 245399 30 410 381 2274.6723105092 2472.497796132 884225.76160966 2052763379.3082
85	581844 11473 7914 245399 30 410 381 2049.8909754804 2313.6983648058 844989.34129274 1875998673.2843
vector 477 Thesis.node[95].veinsmobility speed ETV
vector 478 Thesis.node[95].veinsmobility acceleration ETV
vector 479 Thesis.node[95].veinsmobility co2emission ETV
vector 480 Thesis.node[96].veinsmobility posx ETV
vector 481 Thesis.node[96].veinsmobility posy ETV
111	593588 10013 7923 247716 39 418 380 0.973 5.5918245130654 457.01700161442 697.72655918908
110	603601 10601 7923 247716 39 418 380 -4.5 2.2816343403967 5.0765953185612 131.78666642343
103	614202 10097 7922 247716 38 418 381 0 9.3474450787911 429.54229371246 1344.2450155548
100	624299 12049 7921 247716 37 418 382 2274.6416578302 2479.1858909842 886293.94447278 2057094111.1794
99	636348 11670 7921 247716 37 418 382 2050.0789560403 2315.9571371866 847201.24634515 1880897302.5423
vector 482 Thesis.node[96].veinsmobility speed ETV
119	648070 9818 7929 252914 45 419 375 0.973 5.2816754786153 441.72187533051 632.20163738163
118	657888 10573 7929 252914 45 419 375 -2.0970083283272 2.2986564733298 5.639527350994 88.626906057751
117	668461 10049 7928 252914 44 419 376 0 8.5684714809807 424.10941729573 1249.5624867894
116	678510 11907 7927 252914 43 419 377 2274.6917029234 2473.5615237039 873362.15582115 2023956769.1477
115	690417 11904 7927 252914 43 419 377 2049.848589945 2314.0445389485 835282.73251979 1852594002.7227
vector 483 Thesis.node[96].veinsmobility acceleration ETV
vector 484 Thesis.node[96].veinsmobility co2emission ETV
136	702438 9612 7938 262025 54 421 368 0.973 6.0728118465523 443.4004725312 693.15206015951
135	712050 10311 7938 262025 54 421 368 -2.740046105341 2.4176481608837 8.446257147616 110.14939937601
132	722361 9826 7937 262025 53 421 369 0 10.332454220717 426.9309368295 1375.7648782868
131	732187 11700 7936 262025 52 421 370 2274.6297199849 2473.7685829184 855814.59745152 1980196163.0271
130	743887 11714 7936 262025 52 421 370 2049.848589945 2314.1119232563 819359.65804225 1816316609.925
159	755601 8905 48028 262026 60 422 363 0.973 6.958192478734 451.49975289065 798.98726597166
158	764506 9100 48028 262026 60 422 363 -3.1139438746064 2.5961045105616 8.2853302362976 169.85028350463
157	773606 8808 31972 262026 59 422 364 0 10.149201804206 423.56007811528 1880.1918673976
151	782414 11423 9932 262026 58 422 365 2275.0952377465 2468.7082218787 841758.12198872 1941937029.8203
150	793837 11566 9932 262026 58 422 365 2049.8891538366 2312.46510485 802150.24650416 1764441560.5541
vector 485 Thesis.node[97].veinsmobility posx ETV
vector 486 Thesis.node[97].veinsmobility posy ETV
167	805505 8779 48035 262028 67 424 358 0.973 8.2114873900998 450.83208322106 837.06632988666
166	814284 9007 48035 262028 67 424 358 -3.2335868547275 2.3299594796279 10.721361067925 164.46637156244
164	823291 8724 48034 262028 66 424 359 0 11.968167670247 429.36511018164 2007.1059738083
161	832015 11428 48033 262028 65 424 360 2274.7467611378 2472.1768417333 830503.50218348 1916567337.5189
160	843443 11431 48033 262028 65 424 360 2050.2197909996 2313.5939150231 789529.24996991 1733112846.9376
vector 487 Thesis.node[98].veinsmobility posx ETV
vector 488 Thesis.node[98].veinsmobility posy ETV
vector 489 Thesis.node[97].veinsmobility speed ETV
180	855028 8536 48040 262029 72 425 354 0.973 7.8944084234128 462.38793531678 966.32948200749
179	863564 8664 48040 262029 72 425 354 -2.6122754389712 2.2212253440786 11.23947921007 201.0204635368
174	872228 8391 48039 262029 71 425 355 0 12.242999629872 428.4743976648 2435.5048553215
171	880619 11314 48038 262029 70 425 356 2274.7452801118 2467.7648613288 821499.57164315 1896231727.0536
170	891933 11314 48038 262029 70 425 356 2049.848589945 2312.1581023446 777278.33900492 1698620281.4469
vector 490 Thesis.node[97].veinsmobility acceleration ETV
vector 491 Thesis.node[97].veinsmobility co2emission ETV
vector 492 Thesis.node[98].veinsmobility speed ETV
vector 493 Thesis.node[98].veinsmobility acceleration ETV
vector 494 Thesis.node[98].veinsmobility co2emission ETV
31	903533 12696 6 262031 5 427 423 0.973 1.5460128026488 496.39103709902 583.05626271951
30	916229 13901 6 262031 5 427 423 -0.39927788333087 1.1478125502311 0.37898741482701 3.092898273233
21	930130 12820 5 262031 4 427 424 0.19364535189932 1.3888888888889 565.37173170416 759.98931682677
8	942950 12410 4 262031 3 427 425 2271.3723833773 2355.4942595274 981222.64911349 2265622744.676
7	955360 12414 4 262031 3 427 425 1957.3290805743 2456.9362914835 939046.66602292 2083417122.8065
29	967774 12655 6 262031 5 427 423 0.973 1.6337568305804 496.06263291628 582.76505761309
28	980429 13888 6 262031 5 427 423 -0.57799688014038 1.3771713116633 -0.04555164744185 6.3523128204725
20	994317 12771 5 262031 4 427 424 0 1.3888888888889 563.57647893957 761.11251475004
6	1007088 12423 4 262031 3 427 425 2271.5385965166 2352.4308513195 981264.80067035 2265814081.4392
5	1019511 12408 4 262031 3 427 425 1956.400600514 2456.1085043144 938339.58680765 2080295911.8202
44	1031919 12671 8 262032 7 428 422 0.973 1.3023933054484 494.68444780272 580.32482965292
43	1044590 13890 8 262032 7 428 422 -0.27172395650526 0.55372701900822 0.60783069299676 1.1459518069505
42	1058480 12811 7 262032 6 428 423 0.50459042576125 1.3888888888889 564.63168962841 756.6520936014
25	1071291 12819 6 262032 5 428 424 2271.4172689621 2355.3235519327 978814.24612255 2259829398.1576
24	1084110 12813 6 262032 5 428 424 1957.8506496285 2457.0083291465 937484.68641194 2081340059.9836
41	1096923 12705 7 262032 6 428 423 0.973 1.2702687212958 496.2591476849 582.55624980752
40	1109628 13873 7 262032 6 428 423 -0.37686495213981 0.54866391849893 0.51362754322624 1.5338473077283
37	1123501 12829 6 262032 5 428 424 0.20495196005669 1.3888888888889 564.69088210061 756.63647152679
18	1136330 12841 5 262032 4 428 425 2271.5767793101 2352.267131406 981143.47207704 2265252105.7479
17	1149171 12833 5 262032 4 428 425 1956.9008198545 2456.9455140459 939247.00049877 2084307716.4983
vector 495 Thesis.node[99].veinsmobility posx ETV
vector 496 Thesis.node[99].veinsmobility posy ETV
vector 497 Thesis.node[99].veinsmobility speed ETV
vector 498 Thesis.node[99].veinsmobility acceleration ETV
vector 499 Thesis.node[99].veinsmobility co2emission ETV
vector 500 Thesis.node[100].veinsmobility posx ETV
vector 501 Thesis.node[100].veinsmobility posy ETV
vector 502 Thesis.node[101].veinsmobility posx ETV
vector 503 Thesis.node[101].veinsmobility posy ETV
vector 504 Thesis.node[100].veinsmobility speed ETV
vector 505 Thesis.node[100].veinsmobility acceleration ETV
vector 506 Thesis.node[100].veinsmobility co2emission ETV
vector 507 Thesis.node[101].veinsmobility speed ETV
vector 508 Thesis.node[101].veinsmobility acceleration ETV
vector 509 Thesis.node[101].veinsmobility co2emission ETV
76	1162827 12928 7907 262055 23 451 429 0.973 1.5374273782747 502.29391006746 588.84099517144
75	1175755 14097 7907 262055 23 451 429 -0.39140030445171 1.2351517828997 0.67840046225068 2.8991044916053
74	1189852 13028 7906 262055 22 451 430 0 1.3888888888889 564.68863877882 756.01138542962
66	1202880 13126 7905 262055 21 451 431 2271.6139722654 2355.4613390729 995234.64191926 2298349883.3417
65	1216006 13124 7905 262055 21 451 431 1957.4296636233 2457.0547461791 951448.8996263 2109256296.0693
73	1229130 12912 7906 262055 22 451 430 0.973 1.607572128472 503.55151317948 590.70076126724
72	1242042 14076 7906 262055 22 451 430 -0.56949136262444 1.3399548741479 0.57045195732052 5.2002806077684
69	1256118 13025 7905 262055 21 451 431 0 1.3888888888889 564.71444553994 759.08088400765
63	1269143 13150 7904 262055 20 451 432 2271.5037305075 2352.4288538593 997539.42100228 2303658407.6218
62	1282293 13147 7904 262055 20 451 432 1956.4067034259 2456.9919983206 953200.81404855 2112183392.7115
81	1295440 12930 7908 262056 24 452 429 0.973 1.257863375629 502.23265664875 588.51783667673
80	1308370 14111 7908 262056 24 452 429 -0.3376300404052 0.62426176872418 0.75073485969259 1.5928333081697
77	1322481 13034 7907 262056 23 452 430 0 1.3888888888889 564.59635666955 754.39783912463
71	1335515 13126 7906 262056 22 452 431 2271.5771033055 2352.2650518401 995137.46979341 2297895181.6638
70	1348641 13132 7906 262056 22 452 431 1956.907173627 2457.1019408078 951629.10269371 2110060580.0413
vector 510 Thesis.node[102].veinsmobility posx ETV
vector 511 Thesis.node[102].veinsmobility posy ETV
vector 512 Thesis.node[103].veinsmobility posx ETV
vector 513 Thesis.node[103].veinsmobility posy ETV
vector 514 Thesis.node[102].veinsmobility speed ETV
vector 515 Thesis.node[104].veinsmobility posx ETV
vector 516 Thesis.node[104].veinsmobility posy ETV
vector 517 Thesis.node[102].veinsmobility acceleration ETV
vector 518 Thesis.node[102].veinsmobility co2emission ETV
vector 519 Thesis.node[103].veinsmobility speed ETV
vector 520 Thesis.node[103].veinsmobility acceleration ETV
vector 521 Thesis.node[103].veinsmobility co2emission ETV
vector 522 Thesis.node[104].veinsmobility speed ETV
vector 523 Thesis.node[104].veinsmobility acceleration ETV
vector 524 Thesis.node[104].veinsmobility co2emission ETV
vector 525 Thesis.node[105].veinsmobility posx ETV
vector 526 Thesis.node[105].veinsmobility posy ETV
vector 527 Thesis.node[105].veinsmobility speed ETV
vector 528 Thesis.node[105].veinsmobility acceleration ETV
vector 529 Thesis.node[105].veinsmobility co2emission ETV
vector 530 Thesis.node[106].veinsmobility posx ETV
vector 531 Thesis.node[106].veinsmobility posy ETV
vector 532 Thesis.node[107].veinsmobility posx ETV
vector 533 Thesis.node[107].veinsmobility posy ETV
vector 534 Thesis.node[106].veinsmobility speed ETV
vector 535 Thesis.node[108].veinsmobility posx ETV
vector 536 Thesis.node[108].veinsmobility posy ETV
vector 537 Thesis.node[106].veinsmobility acceleration ETV
vector 538 Thesis.node[106].veinsmobility co2emission ETV
vector 539 Thesis.node[107].veinsmobility speed ETV
vector 540 Thesis.node[107].veinsmobility acceleration ETV
vector 541 Thesis.node[107].veinsmobility co2emission ETV
vector 542 Thesis.node[108].veinsmobility speed ETV
vector 543 Thesis.node[108].veinsmobility acceleration ETV
vector 544 Thesis.node[108].veinsmobility co2emission ETV
vector 545 Thesis.node[109].veinsmobility posx ETV
vector 546 Thesis.node[109].veinsmobility posy ETV
vector 547 Thesis.node[109].veinsmobility speed ETV
vector 548 Thesis.node[109].veinsmobility acceleration ETV
vector 549 Thesis.node[109].veinsmobility co2emission ETV
107	1363981 14598 7923 314381 39 522 484 0.973 1.4885536683567 556.1156456973 641.58364612455
106	1378579 15555 7923 314381 39 522 484 -0.49123082463394 0.94903542583704 0.74125774955049 3.3262587225546
101	1394134 14477 7922 314381 38 522 485 0 1.3888888888889 565.07255333002 759.67355152769
96	1408611 14872 7921 314381 37 522 486 2271.2044424921 2352.3232498129 1120337.9951459 2582862099.1321
95	1423483 14816 7921 314381 37 522 486 1956.7293592672 2457.1396354171 1078130.224206 2400225767.7788
114	1438299 14577 7925 314382 41 523 483 0.973 1.3010420406675 554.58112108303 639.23302260221
113	1452876 15572 7925 314382 41 523 483 -0.29955603129347 0.647996603913 0.48152519822226 1.4742612939179
112	1468448 14458 7924 314382 40 523 484 0 1.3888888888889 564.33579693713 756.71952646009
105	1482906 15332 7923 314382 39 523 485 2271.5834662915 2355.55386553 1118720.5741423 2580727760.2616
104	1498238 15330 7923 314382 39 523 485 1957.1469642106 2456.8721860333 1075898.7436562 2395187529.8603
126	1513568 14382 7932 314383 48 524 477 0.973 3.3233371032367 549.68495673898 641.31525638174
125	1527950 15387 7932 314383 48 524 477 -0.54419529235215 2.0546057722452 3.0663330866881 7.9879601715151
124	1543337 14333 7931 314383 47 524 478 0 4.0617351841229 561.28819117478 768.22961997061
121	1557670 15166 7930 314383 46 524 479 2271.5821004723 2351.9304490434 1104512.0350905 2547081553.2881
120	1572836 15165 7930 314383 46 524 479 1957.9294975868 2452.4113690928 1061884.2857601 2362268039.6536
143	1588001 13447 7941 314383 56 524 469 0.973 10.423195861297 562.26197155536 927.46739473227
142	1601448 14098 7941 314383 56 524 469 -3.1341851760865 2.1024818300293 2.0762574608773 66.474951654983
139	1615546 13223 7940 314383 55 524 470 0 16.089100641845 558.05140807741 1898.4290861356
134	1628769 14933 7938 314383 54 524 471 2271.6452226744 2354.6960594593 1086692.4715396 2507444318.1642
133	1643702 14937 7938 314383 54 524 471 1959.7678499524 2452.4560870467 1051753.0716374 2356362748.148
191	1658639 13028 48042 314385 74 526 453 0.973 9.4699364716086 550.03808820653 912.53264813936
190	1671667 13747 48042 314385 74 526 453 -2.5564595569532 2.0516154218442 5.7123228280953 69.859352258455
187	1685414 12947 48041 314385 73 526 454 0 15.757955401959 562.34985776702 2059.5162173963
178	1698361 14471 48040 314385 72 526 455 2271.5834633931 2351.021531062 1051475.9800871 2430043083.1302
177	1712832 14467 48040 314385 72 526 455 1960.7065473875 2452.2431248712 1018577.221021 2287622201.2455
169	1727299 13218 48035 314385 67 526 460 0.973 9.9125685979037 558.93856749651 938.79625040727
168	1740517 13972 48035 314385 67 526 460 -3.1240337043247 2.2596241472854 4.7320383681599 79.199997495833
165	1754489 13104 48034 314385 66 526 461 0 16.456899135292 558.51133818047 2025.357063131
163	1767593 14662 48033 314385 65 526 462 2271.6453258883 2353.3311779039 1066807.6159629 2463557058.1195
162	1782255 14664 48033 314385 65 526 462 1963.9380216613 2452.4157755277 1033861.371681 2320939539.6302
vector 550 Thesis.node[110].veinsmobility posx ETV
vector 551 Thesis.node[110].veinsmobility posy ETV
203	1797023 12697 48048 314386 80 527 448 0.973 8.5867260937621 545.47721013866 878.47685298414
202	1809720 13486 48048 314386 80 527 448 -2.3851962227144 2.244919335064 6.5074303476384 90.42015002382
199	1823206 12675 48047 314386 79 527 449 0 14.326144999913 558.00732799437 2079.0501514228
196	1835881 14316 48046 314386 78 527 450 2271.7353215927 2349.1889264188 1040924.3262847 2407959198.8832
195	1850197 14318 48046 314386 78 527 450 1966.3057702699 2452.5407646308 1008882.5732539 2268994131.5566
vector 552 Thesis.node[110].veinsmobility speed ETV
vector 553 Thesis.node[110].veinsmobility acceleration ETV
vector 554 Thesis.node[110].veinsmobility co2emission ETV
vector 555 Thesis.node[111].veinsmobility posx ETV
vector 556 Thesis.node[111].veinsmobility posy ETV
vector 557 Thesis.node[112].veinsmobility posx ETV
vector 558 Thesis.node[112].veinsmobility posy ETV
vector 559 Thesis.node[111].veinsmobility speed ETV
vector 560 Thesis.node[111].veinsmobility acceleration ETV
vector 561 Thesis.node[111].veinsmobility co2emission ETV
vector 562 Thesis.node[112].veinsmobility speed ETV
vector 563 Thesis.node[112].veinsmobility acceleration ETV
vector 564 Thesis.node[112].veinsmobility co2emission ETV
vector 565 Thesis.node[113].veinsmobility posx ETV
vector 566 Thesis.node[113].veinsmobility posy ETV
vector 567 Thesis.node[113].veinsmobility speed ETV
vector 568 Thesis.node[113].veinsmobility acceleration ETV
vector 569 Thesis.node[113].veinsmobility co2emission ETV
vector 570 Thesis.node[114].veinsmobility posx ETV
vector 571 Thesis.node[114].veinsmobility posy ETV
vector 572 Thesis.node[115].veinsmobility posx ETV
vector 573 Thesis.node[115].veinsmobility posy ETV
vector 574 Thesis.node[114].veinsmobility speed ETV
vector 575 Thesis.node[116].veinsmobility posx ETV
vector 576 Thesis.node[116].veinsmobility posy ETV
vector 577 Thesis.node[114].veinsmobility acceleration ETV
vector 578 Thesis.node[114].veinsmobility co2emission ETV
vector 579 Thesis.node[115].veinsmobility speed ETV
vector 580 Thesis.node[115].veinsmobility acceleration ETV
vector 581 Thesis.node[115].veinsmobility co2emission ETV
vector 582 Thesis.node[116].veinsmobility speed ETV
vector 583 Thesis.node[116].veinsmobility acceleration ETV
vector 584 Thesis.node[116].veinsmobility co2emission ETV
vector 585 Thesis.node[117].veinsmobility posx ETV
vector 586 Thesis.node[117].veinsmobility posy ETV
vector 587 Thesis.node[117].veinsmobility speed ETV
vector 588 Thesis.node[117].veinsmobility acceleration ETV
vector 589 Thesis.node[117].veinsmobility co2emission ETV
129	1866619 16287 7933 315078 49 607 559 0.973 1.583419010297 629.5538411929 714.0004768742
128	1882906 17079 7933 315078 49 607 559 -0.67678630824094 1.304751318595 0.57941505001242 7.3504049988337
127	1899985 15985 7932 315078 48 607 560 0 1.3888888888889 564.82804251786 753.15869430041
123	1915970 17790 7931 315078 47 607 561 2271.2905594022 2352.4107749615 1292008.6716127 2975813006.6018
122	1933760 17719 7931 315078 47 607 561 1956.4619405325 2457.0213105246 1246476.6211335 2778182397.4684
148	1951479 16227 8022 315079 57 608 552 0.973 1.2279305181626 622.72914726591 706.64865484833
147	1967706 17020 8022 315079 57 608 552 -0.51673068033449 0.34705639309553 0.6140246844853 1.8649773209823
144	1984726 15926 7941 315079 56 608 553 0 1.3888888888889 564.03102634448 748.22751504791
138	2000652 17567 7940 315079 55 608 554 2271.2418136168 2352.234075325 1276960.4339271 2943600745.7779
137	2018219 17589 7940 315079 55 608 554 1957.0018172878 2457.0610588668 1231846.4615983 2747700424.3549
153	2035808 16290 9932 315081 58 610 553 0.973 1.2286724621216 624.10080590661 708.41106180132
152	2052098 17114 9932 315081 58 610 553 -0.27893947970867 0.37085892651443 0.71707675266449 1.5314828905554
149	2069212 16014 8022 315081 57 610 554 0 1.3888888888889 565.60246146757 749.1444855825
141	2085226 17555 7941 315081 56 610 555 2271.4431226078 2352.4872319314 1279342.2166586 2949268161.0409
140	2102781 17617 7941 315081 56 610 555 1956.2283388025 2457.1022150587 1234027.4702886 2752520658.9738
156	2120398 16454 31972 319310 59 618 560 0.973 1.5542935449128 631.66665018063 717.04852440312
155	2136852 17361 31972 319310 59 618 560 -1.1470144036787 1.2238858059478 0.84273179853336 6.066453642009
154	2154213 16239 9932 319310 58 618 561 0 1.3888888888889 565.31610819381 747.02906085552
146	2170452 17853 8022 319310 57 618 562 2271.2727408492 2352.4117544141 1295400.4702241 2986106576.8308
145	2188305 17850 8022 319310 57 618 562 1956.458947976 2457.1396354171 1249299.143904 2785868553.331
484	2206155 5407 262024 342018 420 620 201 0.973 8.9902213028683 283.22684845791 688.025592121
483	2211562 5663 262024 342018 420 620 201 -3.2249891321776 2.2325586684881 4.4819419154869 112.96294486262
482	2217225 5421 252914 342018 419 620 202 0 16.690900217992 413.29230132667 2786.7152321894
481	2222646 6476 247716 342018 418 620 203 2213.8067661028 2325.2890227698 462600.2501223 1054360942.9903
480	2229122 6474 247716 342018 418 620 203 1999.8105352813 2310.0882772078 440855.29226756 959468376.76707
vector 590 Thesis.node[118].veinsmobility posx ETV
vector 591 Thesis.node[118].veinsmobility posy ETV
vector 592 Thesis.node[118].veinsmobility speed ETV
vector 593 Thesis.node[118].veinsmobility acceleration ETV
vector 594 Thesis.node[118].veinsmobility co2emission ETV
208	2235872 16605 48049 342045 81 647 567 0.973 1.6415608059797 638.58878814758 724.261921979
207	2252477 17505 48049 342045 81 647 567 -0.61389576244531 1.3880829702571 0.65201684628985 8.2304408306045
204	2269982 16356 48048 342045 80 647 568 0 1.3888888888889 564.21300252575 747.33312290515
198	2286338 18119 48047 342045 79 647 569 2271.5327908438 2352.2654409793 1315116.5433376 3039861693.4676
197	2304457 18114 48047 342045 79 647 569 1956.9059846758 2457.1021447118 1266764.1880517 2829104577.0542
213	2322571 16655 48050 342045 82 647 566 0.973 1.5550946862922 637.5889177697 722.82643207839
212	2339226 17606 48050 342045 82 647 566 -0.39938342961017 1.2623088525208 0.74405393828991 5.1415162085107
209	2356832 16448 48049 342045 81 647 567 0 1.3888888888889 564.02013018632 741.91317135305
201	2373280 18093 48048 342045 80 647 568 2271.5969308028 2355.272348716 1313378.2285039 3037174056.1462
200	2391373 18089 48048 342045 80 647 568 1958.0070926583 2457.1396354171 1264938.2111562 2825891682.7917
vector 595 Thesis.node[119].veinsmobility posx ETV
vector 596 Thesis.node[119].veinsmobility posy ETV
219	2409566 16667 48052 342047 84 649 566 0.973 1.2648973117651 637.26202637213 721.84658442856
218	2426233 17650 48052 342047 84 649 566 -0.373148472609 0.60698905664798 0.51804772904049 2.9997285147554
217	2443883 16496 48051 342047 83 649 567 0 1.3888888888889 564.88504240989 740.2022231115
211	2460379 18091 48050 342047 82 649 568 2271.6365448484 2352.5001360203 1312907.059909 3034989086.4189
210	2478470 18083 48050 342047 82 649 568 1956.1889124756 2456.8969214751 1264499.9491494 2824012311.584
229	2496553 15821 48059 342047 91 649 559 0.973 8.0113136069742 645.9226219152 899.90700145243
228	2512374 16410 48059 342047 91 649 559 -2.9398480047817 2.5282981731999 2.8206994349791 59.46645173311
225	2528784 15441 48058 342047 90 649 560 0 13.49170074475 560.27064161772 1523.1051882576
223	2544225 17845 48057 342047 89 649 561 2271.9787380426 2354.8400796211 1297618.5461584 3001694860.6956
222	2562070 17893 48057 342047 89 649 561 1959.327819972 2452.497975173 1252891.7970123 2806602061.2258
vector 597 Thesis.node[120].veinsmobility posx ETV
vector 598 Thesis.node[120].veinsmobility posy ETV
vector 599 Thesis.node[119].veinsmobility speed ETV
234	2580120 15591 52250 342048 98 650 553 0.973 7.2973041270784 638.4330103768 872.35163147151
233	2595711 16171 52250 342048 98 650 553 -2.2319349858073 2.3487598489261 1.8463963372785 60.491050747674
232	2611882 15250 48182 342048 97 650 554 0 12.857130257405 559.59927251486 1515.6653774585
231	2627132 17696 48065 342048 96 650 555 2271.8595277049 2351.6392334459 1284193.1394234 2971645301.7922
230	2644828 17703 48065 342048 96 650 555 1958.8192590763 2452.3092813873 1240202.7369951 2779915800.6815
vector 600 Thesis.node[119].veinsmobility acceleration ETV
vector 601 Thesis.node[119].veinsmobility co2emission ETV
vector 602 Thesis.node[120].veinsmobility speed ETV
239	2662703 15240 101429 342049 104 651 548 0.973 7.4227938504315 639.34176777183 884.30362037292
238	2677943 15742 101429 342049 104 651 548 -2.8216116257151 2.4733486875379 5.6379853945311 95.511231203812
237	2693685 14869 101428 342049 103 651 549 0 11.815141661409 561.01977517772 1629.1256160122
236	2708554 17561 101427 342049 102 651 550 2271.9411600743 2353.8097611013 1274242.3825254 2952366125.2911
235	2726115 17560 101427 342049 102 651 550 1962.4757892043 2452.5821214911 1232089.5485128 2768481910.4368
vector 603 Thesis.node[121].veinsmobility posx ETV
vector 604 Thesis.node[121].veinsmobility posy ETV
vector 605 Thesis.node[120].veinsmobility acceleration ETV
vector 606 Thesis.node[120].veinsmobility co2emission ETV
258	2743898 14899 101436 342050 111 652 542 0.973 8.2144853847692 631.90411434614 900.44189683343
257	2758797 15548 101436 342050 111 652 542 -2.0432604067848 2.204342871053 4.5803873247265 93.255790155287
254	2774345 14692 101435 342050 110 652 543 0 12.759789753531 557.35516245707 1585.3164591332
248	2789037 17354 101434 342050 109 652 544 2271.7897366192 2350.264099582 1260226.4057828 2919594770.253
247	2806391 17373 101434 342050 109 652 544 1963.020755032 2452.413525783 1219786.6675445 2743590391.7195
274	2823764 14367 101446 342050 121 652 532 0.973 11.163357811032 651.98454567435 1268.4183632602
273	2838131 14648 101446 342050 121 652 532 -3.1527709200517 2.2671576537645 5.9088070935434 140.07623685021
270	2852779 13948 101445 342050 120 652 533 0 17.649263925935 555.4619798192 2917.4268488456
268	2866727 17062 101444 342050 119 652 534 2271.603515653 2351.9364189003 1234331.6079102 2853372811.502
267	2883789 17021 101444 342050 119 652 534 1968.1994790122 2452.1078229751 1219864.4729827 2790529372.2955
vector 607 Thesis.node[121].veinsmobility speed ETV
vector 608 Thesis.node[121].veinsmobility acceleration ETV
vector 609 Thesis.node[121].veinsmobility co2emission ETV
vector 610 Thesis.node[122].veinsmobility posx ETV
vector 611 Thesis.node[122].veinsmobility posy ETV
vector 612 Thesis.node[122].veinsmobility speed ETV
vector 613 Thesis.node[122].veinsmobility acceleration ETV
vector 614 Thesis.node[122].veinsmobility co2emission ETV
449	2901258 7600 237996 358681 360 665 306 0.973 11.26854923469 413.43762892052 1157.8600926552
448	2908858 7328 237996 358681 360 665 306 -3.5505176054734 2.2664030806914 10.319174252787 132.19504521393
447	2916186 7145 237995 358681 359 665 307 0 19.820360729434 422.12994277456 4154.0950773142
446	2923331 9795 237994 358681 358 665 308 2088.1189889198 2422.7587637314 705706.92887064 1617622677.1151
445	2933126 9743 237994 358681 358 665 308 2179.9175368804 2268.058084231 693398.33740485 1561131695.7479
vector 615 Thesis.node[123].veinsmobility posx ETV
vector 616 Thesis.node[123].veinsmobility posy ETV
vector 617 Thesis.node[123].veinsmobility speed ETV
185	2943026 16339 48041 358688 73 672 600 0.973 1.5526625731046 650.94118437186 713.25180409988
184	2959365 16682 48041 358688 73 672 600 -0.66500258785942 1.2586026056406 0.5487915975618 11.010866613206
181	2976047 15763 48040 358688 72 672 601 0 1.3888888888889 431.77140296398 567.02354308294
173	2991810 19044 48039 358688 71 672 602 2274.6865669195 2482.7599754452 1399973.9867095 3257111688.1247
172	3010854 19177 48039 358688 71 672 602 2045.3454493492 2317.2060588354 1332791.8887737 2953821814.338
vector 618 Thesis.node[123].veinsmobility acceleration ETV
vector 619 Thesis.node[123].veinsmobility co2emission ETV
189	3030150 16326 48042 358689 74 673 600 0.973 1.6107321754471 650.42302574042 711.79261066781
188	3046476 16738 48042 358689 74 673 600 -1.3591584385237 1.3444971801467 0.64381628201936 9.9267689859709
186	3063214 15828 48041 358689 73 673 601 0 1.3888888888889 431.98837587239 559.85000752656
176	3079042 19167 48040 358689 72 673 602 2274.6383952793 2482.2582641748 1399959.8558284 3257031033.816
175	3098209 19161 48040 358689 72 673 602 2045.3276481981 2317.030741751 1332349.5409611 2951922362.7079
194	3117370 16442 48043 358691 75 675 601 0.973 1.6086027119636 652.6661357217 715.31214232811
193	3133812 16909 48043 358691 75 675 601 -1.3236762774405 1.3414378267041 0.74821945510258 9.5051083038895
192	3150721 15977 48042 358691 74 675 602 0 1.3888888888889 433.03567873504 553.20037637475
183	3166698 19183 48041 358691 73 675 603 2274.6952147629 2483.0362765717 1402673.3694456 3264236968.7096
182	3185881 19198 48041 358691 73 675 603 2045.3088540848 2317.3026090043 1333429.1036149 2951914445.8099
vector 620 Thesis.node[124].veinsmobility posx ETV
vector 621 Thesis.node[124].veinsmobility posy ETV
216	3205183 16314 48051 358692 83 676 594 0.973 2.2702213661622 646.14207059578 710.46221031207
215	3221497 16757 48051 358692 83 676 594 -0.61657669795477 1.4950284756901 1.9105015274869 9.1288290949531
214	3238254 15854 48050 358692 82 676 595 0 2.8347572445503 425.46658653296 541.72583056744
206	3254108 18969 48049 358692 81 676 596 2274.7021580951 2480.4263774618 1385872.8115648 3223893202.1934
205	3273077 18984 48049 358692 81 676 596 2050.1208554938 2316.3906105512 1318032.6007986 2917918432.023
vector 622 Thesis.node[124].veinsmobility speed ETV
vector 623 Thesis.node[124].veinsmobility acceleration ETV
vector 624 Thesis.node[124].veinsmobility co2emission ETV
vector 625 Thesis.node[125].veinsmobility posx ETV
vector 626 Thesis.node[125].veinsmobility posy ETV
vector 627 Thesis.node[125].veinsmobility speed ETV
vector 628 Thesis.node[125].veinsmobility acceleration ETV
vector 629 Thesis.node[125].veinsmobility co2emission ETV
227	3292509 16241 48059 358698 91 682 592 0.973 4.3898386703437 650.02546925802 739.51308809309
226	3308750 16816 48059 358698 91 682 592 -0.97412889510853 2.3968093150822 5.4072935273867 29.003553368625
224	3325566 15946 48058 358698 90 682 593 0 6.1028320443639 429.34750657742 587.30982661238
221	3341512 18944 48057 358698 89 682 594 2274.641719654 2478.9972875482 1380677.4557382 3210512243.5638
220	3360456 18954 48057 358698 89 682 594 2049.9306806391 2315.891231941 1312319.334241 2902473764.6646
vector 630 Thesis.node[126].veinsmobility posx ETV
vector 631 Thesis.node[126].veinsmobility posy ETV
246	3379514 15863 101433 358699 108 683 576 0.973 4.8074167245003 632.44074333801 720.37406267556
245	3395377 16435 101433 358699 108 683 576 -0.45721608448248 2.1133292055479 6.13737846121 16.951090974841
242	3411812 15590 101432 358699 107 683 577 0 6.5842216675331 424.42890231847 583.23861669798
241	3427402 18348 101431 358699 106 683 578 2274.6842297025 2473.3525083503 1342105.6322863 3117510329.4581
240	3445750 18457 101431 358699 106 683 578 2049.848589945 2313.9765180447 1276621.058735 2822595975.3071
vector 632 Thesis.node[127].veinsmobility posx ETV
vector 633 Thesis.node[127].veinsmobility posy ETV
vector 634 Thesis.node[126].veinsmobility speed ETV
vector 635 Thesis.node[126].veinsmobility acceleration ETV
vector 636 Thesis.node[126].veinsmobility co2emission ETV
vector 637 Thesis.node[127].veinsmobility speed ETV
vector 638 Thesis.node[128].veinsmobility posx ETV
vector 639 Thesis.node[128].veinsmobility posy ETV
vector 640 Thesis.node[127].veinsmobility acceleration ETV
vector 641 Thesis.node[127].veinsmobility co2emission ETV
vector 642 Thesis.node[128].veinsmobility speed ETV
vector 643 Thesis.node[128].veinsmobility acceleration ETV
vector 644 Thesis.node[128].veinsmobility co2emission ETV
293	3464931 14576 101459 358709 134 693 560 0.973 10.446410044797 693.98091587114 1436.3166370118
292	3479507 14571 101459 358709 134 693 560 -3.0812751794082 2.3413292760705 7.5009729267384 181.5313126206
289	3494078 13990 101458 358709 133 693 561 0 18.404700261005 557.40899938988 3565.8983429056
284	3508068 17911 101457 358709 132 693 562 2271.8715535803 2348.6409289914 1299113.3281999 3003190327.6574
283	3525979 17905 101457 358709 132 693 562 1967.9800865203 2452.2494659412 1289841.0424086 2963329607.7609
279	3543884 14818 101452 358710 127 694 568 0.973 14.03523051603 709.91975154394 1696.5036363611
278	3558702 14894 101452 358710 127 694 568 -3.5391461517807 2.5790399256907 6.5797493507067 186.72550185199
277	3573596 14249 101451 358710 126 694 569 0 21.848720461201 558.90684882548 4173.447835849
276	3587845 18208 101450 358710 125 694 570 2271.8192400283 2352.8028092425 1316672.7050587 3041678504.2397
275	3606053 18212 101450 358710 125 694 570 1965.5523654369 2452.5000326687 1305250.8831626 2992279839.8032
vector 645 Thesis.node[129].veinsmobility posx ETV
vector 646 Thesis.node[129].veinsmobility posy ETV
vector 647 Thesis.node[129].veinsmobility speed ETV
vector 648 Thesis.node[129].veinsmobility acceleration ETV
vector 649 Thesis.node[129].veinsmobility co2emission ETV
vector 650 Thesis.node[130].veinsmobility posx ETV
vector 651 Thesis.node[130].veinsmobility posy ETV
vector 652 Thesis.node[130].veinsmobility speed ETV
vector 653 Thesis.node[130].veinsmobility acceleration ETV
vector 654 Thesis.node[130].veinsmobility co2emission ETV
253	3624817 17525 101435 382230 110 748 639 0.973 1.6088048468079 691.66917708946 755.26307463087
252	3642342 17869 101435 382230 110 748 639 -1.3416174754093 1.3417285084824 0.90227144934681 6.5992425852616
249	3660211 16987 101434 382230 109 748 640 0 1.3888888888889 431.63742608218 536.94397045871
244	3677198 20465 101433 382230 108 748 641 2274.6593139077 2482.5891028474 1489811.7895137 3463979888.2937
243	3697663 20185 101433 382230 108 748 641 2045.4575350495 2317.146349422 1418157.9802559 3140900723.9301
272	3717848 17195 101446 382232 121 750 630 0.973 3.0373552585897 684.849286994 758.9955297
271	3735043 17597 101446 382232 121 750 630 -1.1358027338302 2.2125659170569 3.0598633325594 18.892092624259
269	3752640 16683 101445 382232 120 750 631 0 4.003726006931 427.78589035137 559.02932839733
266	3769323 20182 101444 382232 119 750 632 2274.6486978349 2481.3697454712 1468356.8974763 3412842105.3463
265	3789505 20194 101444 382232 119 750 632 2049.848589945 2316.7202593725 1398906.3995971 3099574412.4518
vector 655 Thesis.node[131].veinsmobility posx ETV
vector 656 Thesis.node[131].veinsmobility posy ETV
vector 657 Thesis.node[131].veinsmobility speed ETV
vector 658 Thesis.node[131].veinsmobility acceleration ETV
vector 659 Thesis.node[131].veinsmobility co2emission ETV
286	3809975 15452 101457 382243 132 761 630 0.973 12.937208300517 752.42759154893 1554.6546442514
285	3825427 14820 101457 382243 132 761 630 -2.9526910787186 2.4029080573082 20.092392514965 159.21888778071
282	3840247 14382 101456 382243 131 761 631 0 20.686711185336 431.49160523086 2863.5692196851
281	3854629 20080 101455 382243 130 761 632 2275.0591608974 2461.4921330807 1458876.5153436 3367884746.1294
280	3874709 20185 101455 382243 130 761 632 2049.8894929311 2310.1167372611 1390479.2718258 3062230050.8578
306	3894894 15006 146202 382245 140 763 624 0.973 11.656195376631 740.91287184417 1523.1249804317
305	3909900 14320 146202 382245 140 763 624 -2.5377038172836 2.3177607018151 19.450787482349 158.55131741333
304	3924220 13918 124018 382245 139 763 625 0 20.172348505943 421.22469902256 2771.1677926903
301	3938138 20012 104390 382245 138 763 626 2275.1443463013 2452.6675633492 1443249.8536775 3327720829.3139
300	3958150 19893 104390 382245 138 763 626 2050.0570502685 2307.2449137395 1371821.4496566 3009105694.3379
vector 660 Thesis.node[132].veinsmobility posx ETV
vector 661 Thesis.node[132].veinsmobility posy ETV
vector 662 Thesis.node[132].veinsmobility speed ETV
vector 663 Thesis.node[132].veinsmobility acceleration ETV
vector 664 Thesis.node[132].veinsmobility co2emission ETV
vector 665 Thesis.node[133].veinsmobility posx ETV
vector 666 Thesis.node[133].veinsmobility posy ETV
vector 667 Thesis.node[133].veinsmobility speed ETV
vector 668 Thesis.node[133].veinsmobility acceleration ETV
vector 669 Thesis.node[133].veinsmobility co2emission ETV
549	3978595 7603 295997 382591 480 790 311 0.973 9.8301754089748 390.99885960455 841.37515983066
548	3986198 7243 295997 382591 480 790 311 -3.4468970154636 2.2559023419175 4.6323932975195 112.69174116879
547	3993441 7081 295996 382591 479 790 312 0 16.935217055339 424.40731432674 3695.6090893548
546	4000522 10005 295995 382591 478 790 313 2088.9094027277 2432.4040232097 716286.9501635 1639983013.6425
545	4010527 9917 295995 382591 478 790 313 2179.73014484 2268.1428206233 703869.93422655 1582961228.9039
vector 670 Thesis.node[134].veinsmobility posx ETV
vector 671 Thesis.node[134].veinsmobility posy ETV
vector 672 Thesis.node[135].veinsmobility posx ETV
vector 673 Thesis.node[135].veinsmobility posy ETV
vector 674 Thesis.node[134].veinsmobility speed ETV
261	4020705 19353 101437 382598 112 797 686 0.973 1.6421394753086 755.71558743111 840.01613193666
260	4040058 20015 101437 382598 112 797 686 -1.0113593227861 1.3888888888889 0.55902055154185 12.015706488436
259	4060073 18809 101436 382598 111 797 687 0 1.3888888888889 564.2240758221 736.94799731027
251	4078882 21926 101435 382598 110 797 688 2271.2921966329 2352.3938218079 1589990.7281526 3674854020.1463
250	4100808 21927 101435 382598 110 797 688 1956.5137381127 2457.0197546487 1541692.7840637 3464204233.7826
vector 675 Thesis.node[134].veinsmobility acceleration ETV
vector 676 Thesis.node[134].veinsmobility co2emission ETV
vector 677 Thesis.node[135].veinsmobility speed ETV
264	4122907 19439 101438 382599 113 798 686 0.973 1.3163626361287 756.13918458598 840.08854134859
263	4142346 20266 101438 382599 113 798 686 -0.47293720745727 0.72743785129632 0.66785659679946 5.8421319697623
262	4162612 18986 101437 382599 112 798 687 0 1.3887767939984 565.5231231905 730.83406896417
256	4181598 21939 101436 382599 111 798 688 2271.5241326594 2355.4880344835 1590338.8107783 3676474321.4811
255	4203537 21968 101436 382599 111 798 688 1957.3481001748 2457.0760546407 1542023.9073459 3465664580.9067
316	4225505 18011 147606 382599 143 798 656 0.973 10.356445711448 755.78588496058 1185.2937601029
315	4243516 18460 147606 382599 143 798 656 -3.1699416397597 2.1251396166254 1.5106991689492 74.660946249605
314	4261976 17496 147605 382599 142 798 657 0 17.618939829473 559.98866263019 2283.8878470543
309	4279472 20882 147604 382599 141 798 658 2271.5935173981 2351.5355440874 1523165.5150021 3526103952.1125
308	4300354 20995 147604 382599 141 798 658 1959.136064903 2452.4994121122 1491199.3515547 3387866769.2727
vector 678 Thesis.node[135].veinsmobility acceleration ETV
vector 679 Thesis.node[135].veinsmobility co2emission ETV
361	4321468 17795 147625 382600 162 799 638 0.973 10.792560547003 754.0765229028 1254.3923862833
360	4339263 18395 147625 382600 162 799 638 -3.1282943279358 2.2218307922729 2.0249535177519 114.41762156557
357	4357658 17407 147624 382600 161 799 639 0 17.298657043639 559.96230026464 2436.370265153
350	4375065 20435 147623 382600 160 799 640 2271.6212259396 2354.6286553294 1482862.2343605 3435957709.5804
349	4395500 20382 147623 382600 160 799 640 1959.9737922148 2452.5584206857 1460906.8198159 3342218355.8424
328	4415882 17813 147614 382601 151 800 650 0.973 9.4044455867587 766.76278003868 1266.4691382142
327	4433695 18204 147614 382601 151 800 650 -4.5 2.3961838218005 4.2179707212464 142.50258642948
324	4451899 17339 147613 382601 150 800 651 0 16.231143636267 556.64247832051 2386.6111606453
321	4469238 20825 147612 382601 149 800 652 2271.6219681053 2349.9578750462 1508725.5686114 3491382629.016
320	4490063 20817 147612 382601 149 800 652 1963.9563738706 2452.5821214911 1483617.1877548 3383281415.3675
vector 680 Thesis.node[136].veinsmobility posx ETV
vector 681 Thesis.node[136].veinsmobility posy ETV
444	4510984 12918 237667 382672 330 801 472 0.973 9.5531171821577 569.1625271735 986.18059458216
443	4523902 13507 237667 382672 330 801 472 -3.0821920119093 2.1206884077936 -5.3696031802693 121.79694855811
442	4537409 12849 237666 382672 329 801 473 0 15.925200927933 545.03146302377 3144.9528346388
441	4550258 15137 237665 382672 328 801 474 2271.5997037823 2353.2252290065 1099831.9284801 2552111866.0388
440	4565395 15138 237665 382672 328 801 474 1964.2617311382 2443.0463145466 1068925.2337618 2415933431.436
vector 682 Thesis.node[137].veinsmobility posx ETV
vector 683 Thesis.node[137].veinsmobility posy ETV
vector 684 Thesis.node[136].veinsmobility speed ETV
468	4580690 10567 245397 382673 408 802 395 0.973 9.7545772667496 487.44741125878 874.06540493743
467	4591257 11046 245397 382673 408 802 395 -2.8612756260412 2.2924063478354 -2.321195647975 123.80579949144
462	4602303 10534 245396 382673 407 802 396 0 14.748951190666 545.05281461352 3193.3467524654
461	4612837 12674 245395 382673 406 802 397 2271.784556627 2349.4909430407 922280.90574705 2142716881.8259
460	4625511 12619 245395 382673 406 802 397 1965.383008022 2443.9508547189 892036.34117818 2009128794.7515
vector 685 Thesis.node[136].veinsmobility acceleration ETV
vector 686 Thesis.node[136].veinsmobility co2emission ETV
vector 687 Thesis.node[137].veinsmobility speed ETV
vector 688 Thesis.node[137].veinsmobility acceleration ETV
vector 689 Thesis.node[137].veinsmobility co2emission ETV
vector 690 Thesis.node[138].veinsmobility posx ETV
vector 691 Thesis.node[138].veinsmobility posy ETV
vector 692 Thesis.node[139].veinsmobility posx ETV
vector 693 Thesis.node[139].veinsmobility posy ETV
vector 694 Thesis.node[140].veinsmobility posx ETV
vector 695 Thesis.node[140].veinsmobility posy ETV
vector 696 Thesis.node[141].veinsmobility posx ETV
vector 697 Thesis.node[141].veinsmobility posy ETV
vector 698 Thesis.node[138].veinsmobility speed ETV
vector 699 Thesis.node[139].veinsmobility speed ETV
vector 700 Thesis.node[138].veinsmobility acceleration ETV
vector 701 Thesis.node[138].veinsmobility co2emission ETV
vector 702 Thesis.node[139].veinsmobility acceleration ETV
vector 703 Thesis.node[139].veinsmobility co2emission ETV
vector 704 Thesis.node[140].veinsmobility speed ETV
vector 705 Thesis.node[141].veinsmobility speed ETV
vector 706 Thesis.node[140].veinsmobility acceleration ETV
vector 707 Thesis.node[140].veinsmobility co2emission ETV
vector 708 Thesis.node[141].veinsmobility acceleration ETV
vector 709 Thesis.node[141].veinsmobility co2emission ETV
vector 710 Thesis.node[142].veinsmobility posx ETV
vector 711 Thesis.node[142].veinsmobility posy ETV
vector 712 Thesis.node[142].veinsmobility speed ETV
vector 713 Thesis.node[142].veinsmobility acceleration ETV
vector 714 Thesis.node[142].veinsmobility co2emission ETV
vector 715 Thesis.node[143].veinsmobility posx ETV
vector 716 Thesis.node[143].veinsmobility posy ETV
vector 717 Thesis.node[143].veinsmobility speed ETV
vector 718 Thesis.node[143].veinsmobility acceleration ETV
vector 719 Thesis.node[143].veinsmobility co2emission ETV
311	4640077 19544 147604 429183 141 879 739 0.973 1.6350878887952 788.90855412935 851.46560536084
310	4659621 19550 147604 429183 141 879 739 -1.3361589854079 1.3790381199569 0.83414314896084 21.384910935763
307	4679171 18518 146202 429183 140 879 740 0 1.3888888888889 432.29456833321 560.1829416247
303	4697689 23670 124018 429183 139 879 741 2274.6578238927 2482.4961432281 1719856.8816963 3993377067.8707
302	4721359 23664 124018 429183 139 879 741 2045.4041878434 2317.1138657797 1630797.5503621 3593282729.2247
338	4745023 18604 147616 429185 153 881 729 0.973 6.0679916080816 791.26104533852 953.8327070633
337	4763627 18379 147616 429185 153 881 729 -2.5619202890195 2.3328454751149 3.4491573009674 82.135775872019
334	4782006 17570 147615 429185 152 881 730 0 9.5928020021067 427.52452294677 936.87883850732
326	4799576 23363 147614 429185 151 881 731 2275.1632013332 2481.2885129553 1694628.4665657 3930151914.9635
325	4822939 23348 147614 429185 151 881 731 2049.9325500791 2316.6918736282 1606902.6380041 3536227265.3088
355	4846287 18307 147624 429187 161 883 723 0.973 5.7403321688603 786.69631090711 962.52795671996
354	4864594 18358 147624 429187 161 883 723 -2.3586431103266 2.2332414329088 5.5983339764962 86.610177921702
351	4882952 17575 147623 429187 160 883 724 0 8.9693666096884 427.74037455971 977.68743876372
346	4900527 23152 147622 429187 159 883 725 2274.6568627743 2478.6394160002 1680094.5266133 3894870508.1645
345	4923679 23144 147622 429187 159 883 725 2050.1225150974 2315.7661779506 1590524.2016756 3493286241.057
vector 720 Thesis.node[144].veinsmobility posx ETV
vector 721 Thesis.node[144].veinsmobility posy ETV
vector 722 Thesis.node[144].veinsmobility speed ETV
vector 723 Thesis.node[144].veinsmobility acceleration ETV
vector 724 Thesis.node[144].veinsmobility co2emission ETV
296	4947099 21538 101461 429511 135 904 770 0.973 1.6157274234633 842.4279937865 930.08475537741
295	4968637 22125 101461 429511 135 904 770 -1.3195257745166 1.3516484223299 0.47082152488862 14.715679206782
294	4990762 20876 101459 429511 134 904 771 0 1.3888888888889 565.07559779229 716.82354795229
288	5011638 24617 101458 429511 133 904 772 2271.5676498381 2352.4124557029 1784290.2230601 4124256424.9225
287	5036255 24650 101458 429511 133 904 772 1956.456805303 2456.9009513426 1735544.4231972 3911938080.2564
299	5060905 21546 101462 429511 136 904 769 0.973 1.5860369319669 841.37641586917 928.36344341457
298	5082451 22284 101462 429511 136 904 769 -0.79038501601011 1.3086095260633 0.57662608653544 9.5834978385542
297	5104735 21015 101461 429511 135 904 770 0 1.3888888888889 565.45292887147 709.90958184219
291	5125750 24605 101459 429511 134 904 771 2271.404968166 2355.4281656336 1782522.0120272 4121430894.8148
290	5150355 24603 101459 429511 134 904 771 1957.5310196254 2456.9828874998 1733825.4808064 3909207081.2979
518	5174958 12640 262061 429513 456 906 451 0.973 9.9852413029668 553.09783832119 975.1520748861
517	5187598 13363 262061 429513 456 906 451 -3.1256913206917 2.2423899748913 1.205473344718 121.33798538435
514	5200961 12586 262060 429513 455 906 452 0 15.577940911184 546.64692534122 2241.9938089981
511	5213547 14468 262058 429513 454 906 453 2271.6176186893 2352.8209212795 1048707.6088771 2428030045.4244
510	5228015 14411 262058 429513 454 906 453 1965.4970270788 2444.1344010913 1017503.7254764 2291853215.0269
561	5242426 10731 314393 429514 534 907 374 0.973 9.4066095017679 486.64295646716 1004.2854536004
560	5253157 11364 314393 429514 534 907 374 -2.9146760518443 2.2520831234473 7.5002718613067 117.26613974632
559	5264521 10709 314392 429514 533 907 375 0 16.565299609578 556.47366785646 2911.4103008429
556	5275230 12003 314391 429514 532 907 376 2271.6456913457 2351.0420801337 870860.76035086 2017203221.5031
555	5287233 11942 314391 429514 532 907 376 1970.9319844136 2452.4584253668 847297.2892242 1915963143.8993
521	5299175 12863 262348 429517 457 910 454 0.973 9.0706903434841 555.31717643475 940.74009137293
520	5312038 13607 262348 429517 457 910 454 -2.991579459994 2.1026090049278 3.4482408132355 99.908922201372
519	5325645 12840 262061 429517 456 910 455 0 14.975576957341 550.47769831917 2075.5816904126
513	5338485 14504 262060 429517 455 910 456 2271.6207587746 2351.9825830603 1055558.0899521 2443623924.0336
512	5352989 14490 262060 429517 455 910 456 1968.0584319936 2447.5134845736 1025944.9535357 2314928505.034
vector 725 Thesis.node[145].veinsmobility posx ETV
vector 726 Thesis.node[145].veinsmobility posy ETV
vector 727 Thesis.node[145].veinsmobility speed ETV
vector 728 Thesis.node[145].veinsmobility acceleration ETV
vector 729 Thesis.node[145].veinsmobility co2emission ETV
[...]
636	10005645 12412 358701 948540 685 1200 516 0.973 3.1904846480726 524.50523721363 547.31811695062
635	10018057 11403 358701 948540 685 1200 516 -1.8342925494915 1.9468476712516 -0.43432640207524 29.335335253571
634	10029460 11115 358700 948540 684 1200 517 0 4.1765179263163 92.816399740456 138.52542979297
631	10040575 16724 358699 948540 683 1200 518 2303.6389393659 2332.5582115519 1201011.8646157 2784649643.682
630	10057299 16766 358699 948540 683 1200 518 2049.8893972034 2138.7678401198 1084103.6956112 2269228516.5826
676	10074065 9675 382599 948540 798 1200 403 0.973 3.5927763706735 410.40576060102 433.49013386191
675	10083740 8866 382599 948540 798 1200 403 -2.0531835219948 2.1654332852164 0.048078867432868 27.152256947702
674	10092606 8694 382598 948540 797 1200 404 0 5.5825800162648 76.454183448295 131.2990309426
671	10101300 13125 382597 948540 796 1200 405 2308.9971899756 2332.5034523216 939823.00105356 2180921361.18
670	10114425 13147 382597 948540 796 1200 405 2050.057253702 2122.2535599037 845122.84064844 1763674201.3824
701	10127572 9329 382680 948540 809 1200 392 0.973 3.8489097845682 397.63303663374 421.23535099308
700	10136901 8517 382680 948540 809 1200 392 -1.8230039045048 2.3314774483558 1.1565615635759 23.271844334765
698	10145418 8357 382679 948540 808 1200 393 0 5.999628175512 66.16077004506 128.27827877761
691	10153775 12691 382678 948540 807 1200 394 2312.9773844612 2332.5446940612 915627.63567447 2127860241.3916
690	10166466 12516 382678 948540 807 1200 394 2049.9308331158 2109.9864877119 818079.72246861 1698686101.572
714	10178982 9250 387521 948540 818 1200 383 0.973 1.2609867717529 383.68463953897 386.04487979289
713	10188232 8511 387521 948540 818 1200 383 -0.44545671468371 0.42777383348148 0.45808555588673 2.7115895920005
712	10196743 8303 382995 948540 817 1200 384 0 1.3332016281729 42.810920799348 30.760895748672
711	10205046 12382 382688 948540 816 1200 385 2319.797337862 2332.4876139014 895626.07784952 2083503111.9983
710	10217428 12513 382688 948540 816 1200 385 2050.1058040878 2089.0060093836 796591.34883182 1648266128.47
759	10229941 6096 429795 948540 959 1200 242 0.973 1.2493823709688 245.37810002331 250.13544919052
758	10236037 5700 429795 948540 959 1200 242 -0.44858203241893 0.42369562743663 0.80197322747638 1.9190746005113
757	10241737 5561 429794 948540 958 1200 243 0 1.2314730320326 33.74674815352 21.246944387399
754	10247298 8000 429793 948540 957 1200 244 2322.4911368734 2332.4947841853 567558.16960096 1320175601.7489
753	10255298 8003 429793 948540 957 1200 244 2050.0838246199 2080.7485582263 505034.77074732 1045350346.3204
781	10263301 4900 948347 948540 1007 1200 194 0.973 1.2301244638691 196.2069907451 199.4380698093
780	10268201 4556 948347 948540 1007 1200 194 -0.44837331223825 0.43574417355849 0.65357101025911 1.3211475060617
779	10272757 4469 948346 948540 1006 1200 195 0 1.0917716630441 24.847112212565 14.261805015886
776	10277226 6461 948345 948540 1005 1200 196 2325.0990427548 2332.4825526814 456132.09925059 1061513613.3908
775	10283687 6438 948345 948540 1005 1200 196 2050.1213185256 2072.7544000328 404994.83050788 836849331.26539
829	10290125 3733 948392 948540 1052 1200 149 0.973 1.161459805214 149.90924003009 151.44934712358
828	10293858 3403 948392 948540 1052 1200 149 -0.44916102980028 0.20035704426947 -0.0053059954546983 0.50834486658756
827	10297261 3375 948391 948540 1051 1200 150 0 0.68155301848663 13.612859834864 6.2836848011225
826	10300636 4979 948390 948540 1050 1200 151 2328.3036505595 2332.4900328102 351675.28241761 819043216.62825
825	10305615 4976 948390 948540 1050 1200 151 2050.0983892727 2062.9311384182 311191.67928332 641327568.10069
836	10310591 3157 948411 948540 1071 1200 130 0.973 1.1515839094383 129.1345085764 128.63382949912
835	10313748 2789 948411 948540 1071 1200 130 -0.43134637703653 0.21346617872608 -0.025504896765226 0.256165331456
834	10316537 2761 948410 948540 1070 1200 131 0 0.49912196118248 6.3957548827612 2.6880176920658
831	10319298 4241 948409 948540 1069 1200 132 2330.6326006879 2332.4780645016 307687.40648592 717208649.90373
830	10323539 4355 948409 948540 1069 1200 132 2050.1350763914 2055.7920787289 271229.97549906 557316025.52595
703	10327894 11271 382680 948540 809 1200 392 0.973 7.3031440797677 467.05776148028 702.57505334593
702	10339165 11745 382680 948540 809 1200 392 -3.0026588353952 2.1750173082773 0.54764368387669 82.10083121649
699	10350910 11084 382679 948540 808 1200 393 0 10.77465814861 429.39949337205 1289.8932219516
693	10361994 12772 382678 948540 807 1200 394 2271.6457835467 2338.0795376019 906817.40802067 2087208029.6817
692	10374766 12775 382678 948540 807 1200 394 2081.3066295397 2452.5821214911 898897.07534171 2053399771.8572
734	10387541 8077 429530 948540 923 1200 278 0.973 1.2942021827772 306.32041811183 340.17705476602
733	10395618 8336 429530 948540 923 1200 278 -0.44523891053279 0.31514182324366 -1.7479312975757 1.468736481909
732	10403954 7851 429529 948540 922 1200 279 0 1.7479312975757 240.26853935245 320.51654171451
731	10411805 9139 429528 948540 921 1200 280 2283.9971363268 2338.0279685709 645015.35917363 1485958664.9999
730	10420944 9137 429528 948540 921 1200 280 2255.3485274887 2450.5214838143 646774.59665993 1495108971.4824
741	10430081 7928 429534 948540 927 1200 274 0.973 1.3195466269103 301.43976615848 334.31638823324
740	10438009 8211 429534 948540 927 1200 274 -0.42833406725375 0.3829439154652 -1.0809398693166 1.4021424181086
739	10446220 7752 429533 948540 926 1200 275 0 1.4889522191497 234.19813246359 308.85561779667
736	10453972 8949 429532 948540 925 1200 276 2284.3561448511 2338.0478518241 636577.80839453 1468294510.7637
735	10462921 9013 429532 948540 925 1200 276 2257.6770605312 2452.2319494836 638484.64883598 1478161988.4778
749	10471934 7152 429788 948540 952 1200 249 0.973 1.403268514738 272.02305288543 299.6529314652
748	10479086 7432 429788 948540 952 1200 249 -1.8838448904669 0.575009296512 -6.1882399788572 7.6526109452617
747	10486518 7015 429787 948540 951 1200 250 0 6.1882399788572 214.79599748326 331.4474564299
746	10493533 8153 429786 948540 950 1200 251 2286.8437641307 2337.9917819352 580075.06734387 1340628696.4001
745	10501686 8212 429786 948540 950 1200 251 2260.1502539309 2444.4313961974 579187.9965651 1337276921.5768
774	10509898 6041 944250 948540 1004 1200 197 0.973 1.2472638725861 222.75544555554 253.31221104235
773	10515939 6452 944250 948540 1004 1200 197 -0.42874305294128 0.43221135284111 -1.2392406565934 1.3396522885594
772	10522391 6026 665617 948540 1003 1200 198 0 1.4044279645608 209.68719535016 278.2692841101
771	10528417 6540 463990 948540 1002 1200 199 2284.488776653 2338.0563525418 460538.45889019 1065850283.3593
770	10534957 6542 463990 948540 1002 1200 199 2265.0966404908 2451.819437512 464758.89387341 1086192831.3433
806	10541499 5593 948357 948540 1017 1200 184 0.973 1.2203117942863 206.70760236895 233.67282155042
805	10547092 5994 948357 948540 1017 1200 184 -0.75555687223823 0.34745094553531 -3.0354204949023 1.7236208466899
802	10553086 5625 948356 948540 1016 1200 185 0 3.0354204949023 197.75956543271 269.99588646448
798	10558711 6123 948355 948540 1015 1200 186 2285.6413187691 2338.0249649048 430863.58917788 998120847.2862
797	10564834 6123 948355 948540 1015 1200 186 2267.4251737775 2448.2342036957 434249.78246688 1014466840.9681
818	10570957 5322 948364 948540 1024 1200 177 0.973 1.3872362669461 198.27107674164 223.67067311099
817	10576279 5567 948364 948540 1024 1200 177 -0.81508478955827 0.44245786862215 -0.94043035415867 1.9197357924323
814	10581846 5229 948363 948540 1023 1200 178 0 1.7968736954205 173.31706950339 233.27189741167
811	10587075 5899 948362 948540 1022 1200 179 2284.2845084266 2337.0189290339 414803.80294209 961297706.19064
810	10592974 5841 948362 948540 1022 1200 179 2286.2461077087 2452.4547533834 420334.74809472 987606369.3157
857	10598815 2096 948476 948540 1136 1200 65 0.973 1.2012139812327 75.597011522806 88.083504384055
856	10600911 2319 948476 948540 1136 1200 65 -0.84816160580279 0.070496969815874 -1.8602712497491 1.1801643561486
854	10603230 2169 948475 948540 1135 1200 66 1.3069752230555 3.2048854093242 93.252245813501 136.24810527032
851	10605399 2207 948474 948540 1134 1200 67 2285.7273325551 2313.8461002455 154117.70371127 354515735.56307
850	10607606 2198 948474 948540 1134 1200 67 2359.2222543216 2447.9621798012 160934.53158373 386608872.26221
869	10609804 421 948527 948540 1187 1200 14 0.973 1.188593012311 15.607612192105 17.513619661042
868	10610225 493 948527 948540 1187 1200 14 -1.0281626159594 0.035154162540648 -2.1790141632507 1.4985310253061
867	10610718 493 948526 948540 1186 1200 15 1.3183376122437 3.4973517754944 24.468742796742 44.9876847544
866	10611211 524 948525 948540 1185 1200 16 2285.866042708 2293.3920231279 36640.239805101 83906784.991038
865	10611735 528 948525 948540 1185 1200 16 2423.7221239008 2447.5235004012 38950.435296182 94821892.566574
876	10612263 158 948535 948540 1195 1200 6 0.973 1.1628333602552 6.2071494345813 6.4669297588726
875	10612421 210 948535 948540 1195 1200 6 -1.1447463129179 -0.048921992186339 -2.6077995253328 2.0697973271879
874	10612631 231 948534 948540 1194 1200 7 1.3692367114868 3.9770362368196 14.90084198189 37.263061959039
871	10612862 261 948533 948540 1193 1200 8 2286.0566406841 2290.6838550611 18307.970253761 41897744.728489
870	10613123 263 948533 948540 1193 1200 8 2432.2868721711 2446.9207225656 19513.64166052 47598005.167132
431	10613386 23112 219480 948540 275 1200 926 0.973 5.3332450003629 970.8837846421 1090.9686132786
430	10636498 22212 219480 948540 275 1200 926 -2.9769433439461 2.3286406249932 0.58769650058317 59.071118683773
429	10658710 21480 219479 948540 274 1200 927 0 9.7349110053469 346.77771342138 722.27107166733
426	10680190 29802 219478 948540 273 1200 928 2275.0363037935 2407.4106123683 2140595.2654271 4938176243.6584
425	10709992 29859 219478 948540 273 1200 928 2050.0967743927 2292.5201266402 2020605.1701367 4404801596.3901
454	10739851 20634 241337 948540 379 1200 822 0.973 5.6445800224289 856.09882338032 941.46057682006
453	10760485 19746 241337 948540 379 1200 822 -2.515025519266 2.0842670437694 -0.45327143146954 39.283107076207
452	10780231 19128 239321 948540 378 1200 823 0 8.6508397848917 261.93080169869 448.36754629326
451	10799359 26510 238306 948540 377 1200 824 2274.8437898811 2332.4872222093 1895309.1671209 4359670982.5133
450	10825869 26540 238306 948540 377 1200 824 2050.1070047632 2266.2559395441 1799880.4348871 3934926304.1584
459	10852409 20041 245377 948540 388 1200 813 0.973 5.1778231476613 851.27396390661 964.32453471797
458	10872450 19037 245377 948540 388 1200 813 -2.5117010064831 2.3570401161115 -0.6851994369171 74.728776788101
457	10891487 18468 245376 948540 387 1200 814 0 9.0452570028719 255.0871074992 605.10117730595
456	10909955 26182 245375 948540 386 1200 815 2275.1095040933 2332.4894941216 1874015.1430612 4309321956.9894
455	10936137 26259 245375 948540 386 1200 815 2050.1000405448 2263.9270163738 1774755.0866716 3867995776.5565
479	10962396 18901 245401 948540 412 1200 789 0.973 5.5454566453846 823.71338415479 951.84979232646
478	10981297 17636 245401 948540 412 1200 789 -2.7947535457067 2.2628567826126 -0.44390886863403 84.888703963036
477	10998933 17241 245400 948540 411 1200 790 0 9.183247595842 246.6063997979 721.8541057508
472	11016174 25386 245399 948540 410 1200 791 2274.898531648 2332.4644162519 1819397.336305 4185031246.099
471	11041560 25398 245399 948540 410 1200 791 2050.1769131263 2261.5980929868 1716536.9881202 3728312133.1019
491	11066958 18146 262030 948540 426 1200 775 0.973 6.6106330212612 809.66004551591 974.28791503623
490	11085104 16587 262030 948540 426 1200 775 -2.8523374761426 2.3244520123112 -0.73107268487717 105.08028972056
489	11101691 16263 262029 948540 425 1200 776 0 10.164605328753 231.6605318647 830.89877127766
486	11117954 25029 262028 948540 424 1200 777 2275.0867035545 2332.517831097 1785919.0664314 4105134732.9725
485	11142983 24787 262028 948540 424 1200 777 2050.0131776461 2256.9402465645 1677280.6953585 3623226308.1871
506	11167770 17718 262045 948540 441 1200 760 0.973 6.16128094714 790.28115823333 935.83970631395
505	11185488 16220 262045 948540 441 1200 760 -2.6961275215494 2.1716638107398 -0.42811474279209 97.873132010033
504	11201708 15891 262044 948540 440 1200 761 0 9.1441646451044 223.07932462844 833.09886351425
501	11217599 24568 262043 948540 439 1200 762 2274.6324407958 2332.4982171572 1752725.8693157 4031781710.6221
500	11242167 24563 262043 948540 439 1200 762 2050.0733013412 2254.6113233916 1640296.0370676 3533313289.086
524	11266730 18017 266113 948540 458 1200 743 0.973 1.4370891466716 753.35525467581 769.07191379853
523	11284747 16662 266113 948540 458 1200 743 -1.0517099527492 0.54557391766599 -0.6882516162133 9.101636503339
522	11301409 16217 262348 948540 457 1200 744 0 1.8888558411473 178.57373776607 206.43351695126
516	11317626 24020 262061 948540 456 1200 745 2278.7369738079 2332.5314494829 1715114.3535335 3948693615.7158
515	11341646 23880 262061 948540 456 1200 745 2049.9714324544 2220.8809212642 1598028.8221863 3429937809.7675
529	11365526 17399 295983 948540 466 1200 735 0.973 5.1951751281449 751.47275068105 816.56677966209
528	11382925 15979 295983 948540 466 1200 735 -2.9277172426944 2.2061747919391 -1.0885444115474 53.092067284596
527	11398904 15630 295982 948540 465 1200 736 0 8.3946397383566 170.53926060045 406.0098199645
526	11414534 23620 295981 948540 464 1200 737 2280.8874137624 2332.4132689488 1699482.6697589 3919109589.9399
525	11438154 23637 295981 948540 464 1200 737 2050.3336977844 2213.6940589937 1571889.5481228 3354494201.8215
538	11461791 17048 295991 948540 474 1200 727 0.973 5.2291472223356 743.57049665399 814.17574292478
537	11478839 15648 295991 948540 474 1200 727 -2.7194297369662 2.204207597248 -0.90958254299037 65.434214101863
534	11494487 15305 295990 948540 473 1200 728 0 8.1254201549025 164.33119067843 421.04651234586
531	11509792 23462 295989 948540 472 1200 729 2283.0378536738 2332.4730719569 1683356.0506964 3887273078.7054
530	11533254 23492 295989 948540 472 1200 729 2050.1503803147 2206.507196867 1547466.6671156 3286674904.0039
578	11556746 14780 315059 948540 588 1200 613 0.973 5.7452614215171 631.54354812059 701.74852801034
577	11571526 13826 315059 948540 588 1200 613 -2.3932659861825 2.2934448687665 -0.049724171508484 40.794256302906
574	11585352 13488 315058 948540 587 1200 614 0 9.1664989667419 154.86404411671 399.38745770028
571	11598840 19860 315057 948540 586 1200 615 2285.8247859195 2332.4491387307 1419851.4474693 3278130275.2235
570	11618700 19724 315057 948540 586 1200 615 2050.2237441573 2197.1931501454 1306173.8739055 2775287089.3421
601	11638424 13792 342049 948540 651 1200 550 0.973 1.2351926634895 563.20436559428 580.62369075892
600	11652216 13260 342049 948540 651 1200 550 -0.44701736325456 0.44436561103212 0.33463148281299 4.1362161509632
599	11665476 12837 342048 948540 650 1200 551 0 1.3886618860322 143.22303672132 142.33277577179
596	11678313 17734 342047 948540 649 1200 552 2289.1996793978 2332.4531102687 1274824.0412574 2944238642.4598
595	11696047 17823 342047 948540 649 1200 552 2050.2115699821 2185.9141118464 1170958.6429658 2484728281.3956
614	11713870 13381 348671 948540 659 1200 542 0.973 4.9456035311538 559.17215757809 608.23602191102
613	11727251 12676 348671 948540 659 1200 542 -2.4285845259909 2.1951236251445 0.63938825062897 29.184688233326
612	11739927 12313 343224 948540 658 1200 543 0 7.3022038153736 135.15603705075 268.43528300581
611	11752240 17586 342306 948540 657 1200 544 2291.6929168989 2332.5582129807 1258568.085287 2911798330.8488
610	11769826 17569 342306 948540 657 1200 544 2049.8893928237 2177.5816055185 1146920.6512735 2418495127.6408
619	11787395 12887 358689 948540 673 1200 528 0.973 3.8507398610585 542.70880032549 583.67090636557
618	11800282 12095 358689 948540 673 1200 528 -1.488174191201 2.1920756677668 0.56817874901193 28.670617751369
617	11812377 11757 358688 948540 672 1200 529 0 6.7507449332122 127.80572370899 257.19367085354
616	11824134 17122 358687 948540 671 1200 530 2294.1979202541 2332.5579420023 1227585.9578801 2843376096.5423
615	11841256 16933 358687 948540 671 1200 530 2049.8902234689 2169.2097772032 1113065.6111233 2337969932.1735
654	11858189 11645 380964 948540 718 1200 483 0.973 7.3843648319505 510.26578668194 641.24474039097
653	11869834 10855 380964 948540 718 1200 483 -2.8270382058286 2.1952088584565 -2.3740066766322 69.046027186243
652	11880689 10622 380963 948540 717 1200 484 0 10.980955668655 156.64868285184 555.65251741356
651	11891311 15646 380962 948540 716 1200 485 2306.3713933852 2354.5908627304 1125863.9343662 2613589527.644
650	11906957 15707 380962 948540 716 1200 485 1980.8315642124 2130.3463394026 1010829.9206674 2107173947.2917
719	11922664 9352 428834 948540 837 1200 364 0.973 10.543245882734 462.76280719464 1056.7002386287
718	11932016 9189 428834 948540 837 1200 364 -3.3826267571065 2.5156899950211 -0.85219538417368 164.94472019391
717	11941205 8879 428833 948540 836 1200 365 0 17.387755349227 396.12264445871 2824.2522343396
716	11950084 11890 428832 948540 835 1200 366 2272.0086669465 2483.59 845637.46551713 1954348577.8453
715	11961974 11885 428832 948540 835 1200 366 2080.2761571408 2320.89 818298.49556577 1830846312.094
756	11973859 7010 429793 948540 957 1200 244 0.973 4.1508279993155 271.64747377184 319.71283764212
755	11980869 7285 429793 948540 957 1200 244 -2.1110245729577 2.0395359896845 -3.5639337299113 14.168602485267
752	11988154 6879 429792 948540 956 1200 245 0 6.8261672637057 218.30471415643 381.56144939251
751	11995033 8054 429791 948540 955 1200 246 2284.4548067129 2338.1029759897 569224.94209726 1317178521.9515
750	12003087 8054 429791 948540 955 1200 246 2262.4787869638 2451.9250909584 568425.4223744 1314233710.8299
801	12011141 4450 948356 948540 1016 1200 185 0.973 5.1860222140888 204.31115050527 290.07032619192
800	12015591 4188 948356 948540 1016 1200 185 -2.4262353666384 2.2728515806275 -2.57656402139 52.685332064574
799	12019779 4121 948355 948540 1015 1200 186 0 7.8858951360407 103.62317389319 456.29942210691
796	12023900 6163 948354 948540 1014 1200 187 2243.2832370421 2306.3160986857 424266.88968373 962674715.15789
795	12030063 6164 948354 948540 1014 1200 187 2250.1800022842 2311.4320865033 424861.79449623 965304753.41457
844	12036227 3426 948416 948540 1076 1200 125 0.973 11.117195648869 181.91875051088 564.22589449249
843	12039653 3622 948416 948540 1076 1200 125 -3.4561537542006 2.2527099357297 -3.3663347352199 91.453380267774
842	12043275 3472 948415 948540 1075 1200 126 0 17.149173142207 225.11181885378 1677.0666372484
841	12046747 4182 948414 948540 1074 1200 127 2365.4133904252 2485.2578293528 306700.52330978 740907326.52643
840	12050929 4180 948414 948540 1074 1200 127 2282.2384810295 2320.4047929808 291658.85646218 669823165.31746
859	12055109 1544 948476 948540 1136 1200 65 0.973 4.721488233988 73.657440112113 112.93565266587
858	12056653 1450 948476 948540 1136 1200 65 -2.5675535712712 2.2055696672993 -4.0457455376207 27.957422119621
855	12058103 1454 948475 948540 1135 1200 66 0 6.620378920127 48.934880562053 230.45440682124
853	12059557 2209 948474 948540 1134 1200 67 2358.2817144579 2384.13346117 158188.74109291 373490621.36502
852	12061766 2210 948474 948540 1134 1200 67 2278.4048080549 2287.5440152827 152791.30022138 348435741.75427
879	12063976 115 948536 948540 1196 1200 5 0.973 0.973 4.865 4.733645
878	12064091 173 948536 948540 1196 1200 5 -0.58014886243285 -0.1537922294675 -1.5714118833682 0.60983729540447
877	12064264 198 948535 948540 1195 1200 6 1.4963315985961 3.0677434819643 12.692018287958 28.546619279916
873	12064462 229 948534 948540 1194 1200 7 2284.4557822273 2287.9071159992 16002.389315087 36582363.462231
872	12064691 229 948534 948540 1194 1200 7 2441.068480436 2451.9220569094 17128.326352925 41911479.846917

