version 2
run General-0-20200301-09:30:00-8764
attr configname General
attr datetime 20200301-09:30:00
attr experiment General
attr inifile omnetpp.ini
attr iterationvars ""
attr iterationvarsf ""
attr measurement ""
attr network globcomm.simulation.Thesis
attr processid 8764
attr repetition 0
attr replication #0
attr resultdir results
attr runnumber 0
attr seedset 0
param **.debug false
param **.coreDebug false
param *.playgroundSizeX 3000m
param *.playgroundSizeY 3000m
param *.playgroundSizeZ 500m
param *.annotations.draw true
param *.manager.updateInterval 1s
param *.manager.host "\"localhost\""
param *.manager.port 9999
param *.manager.autoShutdown true
param *.manager.launchConfig "xmldoc(\"erlangen.launchd.xml\")"
param Thesis.rsu[0].mobility.x 2000
param Thesis.rsu[0].mobility.y 2000
param Thesis.rsu[0].mobility.z 3
param *.rsu[*].applType "\"globcomm.src.RSU11p\""
param *.rsu[*].appl.headerLength "80 bit"
param *.rsu[*].appl.sendBeacons false
param *.rsu[*].appl.dataOnSch false
param *.rsu[*].appl.beaconInterval 1s
param *.rsu[*].appl.beaconUserPriority 7
param *.rsu[*].appl.dataUserPriority 5
param *.connectionManager.sendDirect true
param *.connectionManager.maxInterfDist 400m
param *.connectionManager.drawMaxIntfDist true
param *.**.nic.mac1609_4.useServiceChannel false
param *.**.nic.mac1609_4.txPower 20mW
param *.**.nic.mac1609_4.bitrate 6Mbps
param *.**.nic.phy80211p.sensitivity -89dBm
param *.**.nic.phy80211p.useThermalNoise true
param *.**.nic.phy80211p.thermalNoise -110dBm
param *.**.nic.phy80211p.decider "xmldoc(\"config.xml\")"
param *.**.nic.phy80211p.analogueModels "xmldoc(\"config.xml\")"
param *.**.nic.phy80211p.usePropagationDelay true
param *.**.nic.phy80211p.antenna "xmldoc(\"antenna.xml\", \"/root/Antenna[@id='monopole']\")"
param *.node[*].applType "\"globcomm.src.MyThesisApp\""
param *.node[*].appl.headerLength "80 bit"
param *.node[*].appl.sendBeacons false
param *.node[*].appl.dataOnSch false
param *.node[*].appl.beaconInterval 1s
param *.node[*].veinsmobilityType.debug true
param *.node[*].veinsmobility.x 0
param *.node[*].veinsmobility.y 0
param *.node[*].veinsmobility.z 1.895
param *.node[*].veinsmobility.accidentCount 0
param *.node[*].veinsmobility.accidentStart 75s
param *.node[*].veinsmobility.accidentDuration 50s
param Thesis.manager.numVehicles 5

vector 0 Thesis.node[0].veinsmobility posx ETV
vector 1 Thesis.node[0].veinsmobility posy ETV
vector 2 Thesis.node[0].veinsmobility speed ETV
vector 3 Thesis.node[1].veinsmobility posx ETV
vector 4 Thesis.node[1].veinsmobility posy ETV
vector 5 Thesis.node[2].veinsmobility posx ETV
vector 6 Thesis.node[2].veinsmobility posy ETV
vector 7 Thesis.node[3].veinsmobility posx ETV
vector 8 Thesis.node[3].veinsmobility posy ETV
vector 9 Thesis.node[4].veinsmobility posx ETV
vector 10 Thesis.node[4].veinsmobility posy ETV
vector 11 Thesis.node[0].veinsmobility acceleration ETV
vector 12 Thesis.node[0].veinsmobility co2emission ETV
vector 13 Thesis.node[1].veinsmobility speed ETV
vector 14 Thesis.node[2].veinsmobility speed ETV
vector 15 Thesis.node[3].veinsmobility speed ETV
vector 16 Thesis.node[4].veinsmobility speed ETV
vector 17 Thesis.node[1].veinsmobility acceleration ETV
vector 18 Thesis.node[1].veinsmobility co2emission ETV
vector 19 Thesis.node[2].veinsmobility acceleration ETV
vector 20 Thesis.node[2].veinsmobility co2emission ETV
vector 21 Thesis.node[3].veinsmobility acceleration ETV
vector 22 Thesis.node[3].veinsmobility co2emission ETV
vector 23 Thesis.node[4].veinsmobility acceleration ETV
vector 24 Thesis.node[4].veinsmobility co2emission ETV
vector 25 Thesis.node[5].veinsmobility posx ETV
vector 26 Thesis.node[5].veinsmobility posy ETV
vector 27 Thesis.node[5].veinsmobility speed ETV
vector 28 Thesis.node[5].veinsmobility acceleration ETV
vector 29 Thesis.node[5].veinsmobility co2emission ETV
24	6	5	1.6399839049095
24	7	6	1.6200030926325
24	8	7	1.5821891620849
24	9	8	1.4348047179128
24	10	9	1.744154036794
24	11	10	1.5897884597155
24	12	11	1.5420512799965
24	13	12	1.7534013685363
24	14	13	1.386604834889
24	15	14	1.6184431870354
24	17	15	1.6877441748248
24	36	16	1.6779964554317
24	38	17	1.4314573487021
24	77	18	1.5718047909647
24	82	19	1.6041188043117
24	215	20	1.5681664789731
24	216	21	0.973
24	217	22	0.973
24	218	23	3.6453435662591
24	219	24	4.6802411815738
24	220	25	1.4999647259479
24	221	26	1.9518064141905
24	222	27	6.1076026042474
24	223	28	7.3420103014141
24	224	29	0.973
24	225	30	0.973
24	226	31	0.973
24	227	32	0.973
24	228	33	0.973
24	229	34	0.973
24	230	35	0.973
24	231	36	0.973
24	232	37	0.973
24	233	38	0.973
24	234	39	0.973
24	235	40	0.973
24	236	41	0.973
24	237	42	0.973
24	238	43	0.973
24	239	44	0.973
24	240	45	0.973
24	241	46	0.973
24	242	47	0.973
24	243	48	0.973
24	244	49	0.973
24	245	50	0.973
24	246	51	0.973
24	247	52	0.973
24	248	53	0.973
24	249	54	0.973
24	250	55	0.973
24	251	56	0.973
24	252	57	0.973
24	253	58	0.973
24	254	59	0.973
24	255	60	0.973
24	256	61	0.973
24	257	62	0.973
24	258	63	0.973
24	259	64	0.973
24	260	65	0.973
24	261	66	0.973
24	262	67	0.973
24	263	68	0.973
24	264	69	0.973
24	265	70	0.973
24	266	71	0.973
24	267	72	0.973
24	268	73	0.973
24	269	74	0.973
24	270	75	0.973
24	271	76	0.973
24	272	77	0.973
24	273	78	0.973
24	274	79	0.973
24	275	80	0.973
24	276	81	2.3743358356408
24	277	82	2.2060615494702
24	278	83	5.129624044422
24	279	84	5.1725205940977
24	280	85	6.128401047871
24	281	86	2.2916826010836
24	282	87	5.5676681640539
24	283	88	7.5202667261191
24	284	89	9.4206000627251
24	285	90	10.301919400878
24	286	91	11.411016979997
24	287	92	13.67870126268
24	288	93	8.115778959811
24	289	94	3.2521176815331
24	290	95	3.5191176229597
24	291	96	2.9211957629859
24	292	97	3.4838313337713
24	293	98	3.1121288906528
24	294	99	3.1706534371099
24	295	100	2.6594916135637
23	6	5	0.020367288864218
23	7	6	0.010575645361095
23	8	7	-0.0070261032669805
23	9	8	-0.074748954658862
23	10	9	0.069601483468432
23	11	10	-0.0031702748755915
23	12	11	-0.024965427357239
23	13	12	0.072156031220221
23	14	13	-0.098024768140167
23	15	14	0.011699605437462
23	17	15	0.04294656863436
23	36	16	0.036972338638735
23	38	17	-0.077070702449419
23	77	18	-0.010191243179143
23	82	19	0.0049835300748242
23	215	20	-0.011706144926139
23	216	21	-2.4971220568172
23	217	22	-2.4828872431326
23	218	23	1.7130311337659
23	219	24	1.8143522326624
23	220	25	0.0017130365129558
23	221	26	0.24235158870462
23	222	27	1.9533599976846
23	223	28	2.0019081797288
23	224	29	-1.4448230585135
23	225	30	-3.0179749594543
23	226	31	-2.6094734976907
23	227	32	-2.0276525534495
23	228	33	-1.2442500485746
23	229	34	-0.66417202346188
23	230	35	-0.15340744074843
23	231	36	-0.31791286647906
23	232	37	0
23	233	38	0
23	234	39	0
23	235	40	0
23	236	41	0
23	237	42	0
23	238	43	0
23	239	44	0
23	240	45	0
23	241	46	0
23	242	47	0
23	243	48	0
23	244	49	0
23	245	50	0
23	246	51	0
23	247	52	0
23	248	53	0
23	249	54	0
23	250	55	0
23	251	56	0
23	252	57	0
23	253	58	0
23	254	59	0
23	255	60	0
23	256	61	0
23	257	62	0
23	258	63	0
23	259	64	0
23	260	65	0
23	261	66	0
23	262	67	0
23	263	68	0
23	264	69	0
23	265	70	0
23	266	71	0
23	267	72	0
23	268	73	0
23	269	74	0
23	270	75	0
23	271	76	0
23	272	77	0
23	273	78	0
23	274	79	0
23	275	80	0
23	276	81	2.1916822653016
23	277	82	1.15463838332
23	278	83	2.5940394537663
23	279	84	1.9205476789176
23	280	85	1.8972628164897
23	281	86	0.25129120198313
23	282	87	1.3748895892152
23	283	88	1.7575816881144
23	284	89	1.9908101750445
23	285	90	1.9243711924227
23	286	91	1.9148158530961
23	287	92	2.1040553117963
23	288	93	0.93482476448053
23	289	94	0.017338965535167
23	290	95	0.065191379345485
23	291	96	-0.045629036421886
23	292	97	0.058101366048213
23	293	98	-0.011285961961839
23	294	99	-0.00028516000136847
23	295	100	-0.093467099091502
16	5	4	8.7705607064168
16	6	5	8.790927995281
16	7	6	8.8015036406421
16	8	7	8.7944775373751
16	9	8	8.7197285827163
16	10	9	8.7893300661847
16	11	10	8.7861597913091
16	12	11	8.7611943639519
16	13	12	8.8333503951721
16	14	13	8.7353256270319
16	15	14	8.7470252324694
16	17	15	8.7899718011037
16	36	16	8.8269441397425
16	38	17	8.7498734372931
16	77	18	8.7396821941139
16	82	19	8.7446657241887
16	215	20	8.7329595792626
16	216	21	6.2358375224453
16	217	22	3.7529502793128
16	218	23	5.4659814130787
16	219	24	7.2803336457411
16	220	25	7.282046682254
16	221	26	7.5243982709586
16	222	27	9.4777582686432
16	223	28	11.479666448372
16	224	29	10.034843389858
16	225	30	7.0168684304042
16	226	31	4.4073949327134
16	227	32	2.379742379264
16	228	33	1.1354923306894
16	229	34	0.47132030722749
16	230	35	0.31791286647906
16	231	36	0
16	232	37	0
16	233	38	0
16	234	39	0
16	235	40	0
16	236	41	0
16	237	42	0
16	238	43	0
16	239	44	0
16	240	45	0
16	241	46	0
16	242	47	0
16	243	48	0
16	244	49	0
16	245	50	0
16	246	51	0
16	247	52	0
16	248	53	0
16	249	54	0
16	250	55	0
16	251	56	0
16	252	57	0
16	253	58	0
16	254	59	0
16	255	60	0
16	256	61	0
16	257	62	0
16	258	63	0
16	259	64	0
16	260	65	0
16	261	66	0
16	262	67	0
16	263	68	0
16	264	69	0
16	265	70	0
16	266	71	0
16	267	72	0
16	268	73	0
16	269	74	0
16	270	75	0
16	271	76	0
16	272	77	0
16	273	78	0
16	274	79	0
16	275	80	0
16	276	81	2.1916822653016
16	277	82	3.3463206486215
16	278	83	5.9403601023878
16	279	84	7.8609077813055
16	280	85	9.7581705977951
16	281	86	10.009461799778
16	282	87	11.384351388993
16	283	88	13.141933077108
16	284	89	15.132743252152
16	285	90	17.057114444575
16	286	91	18.971930297671
16	287	92	21.075985609467
16	288	93	22.010810373948
16	289	94	22.028149339483
16	290	95	22.093340718829
16	291	96	22.047711682407
16	292	97	22.105813048455
16	293	98	22.094527086493
16	294	99	22.094241926492
16	295	100	22.0007748274
10	4	3	2286.6472114726
10	5	4	2286.6472114726
10	6	5	2289.2961787196
10	7	6	2291.9427004933
10	8	7	2294.5919963173
10	9	8	2297.2344039898
10	10	9	2299.8842449809
10	11	10	2302.5428424504
10	12	11	2305.1910947593
10	13	12	2307.8460452389
10	14	13	2310.5059774814
10	15	14	2313.1821923794
10	17	15	2315.8635937251
10	36	16	2318.5439029668
10	38	17	2321.1923832471
10	77	18	2323.845718004
10	82	19	2326.4911611242
10	215	20	2329.1477024604
10	216	21	2331.795780994
10	217	22	2334.0542054147
10	218	23	2335.5035836963
10	219	24	2336.8387751919
10	220	25	2338.0542806245
10	221	26	2335.4201235945
10	222	27	2329.1140627145
10	223	28	2320.8735157472
10	224	29	2310.759636073
10	225	30	2299.9898059343
10	226	31	2292.044911825
10	227	32	2286.7460531659
10	228	33	2283.6457531396
10	229	34	2282.063004931
10	230	35	2281.3772596462
10	231	36	2280.9718702878
10	232	37	2280.9717365196
10	233	38	2280.9717365196
10	234	39	2280.9717365196
10	235	40	2280.9717365196
10	236	41	2280.9717365196
10	237	42	2280.9717365196
10	238	43	2280.9717365196
10	239	44	2280.9717365196
10	240	45	2280.9717365196
10	241	46	2280.9717365196
10	242	47	2280.9717365196
10	243	48	2280.9717365196
10	244	49	2280.9717365196
10	245	50	2280.9717365196
10	246	51	2280.9717365196
10	247	52	2280.9717365196
10	248	53	2280.9717365196
10	249	54	2280.9717365196
10	250	55	2280.9717365196
10	251	56	2280.9717365196
10	252	57	2280.9717365196
10	253	58	2280.9717365196
10	254	59	2280.9717365196
10	255	60	2280.9717365196
10	256	61	2280.9717365196
10	257	62	2280.9717365196
10	258	63	2280.9717365196
10	259	64	2280.9717365196
10	260	65	2280.9717365196
10	261	66	2280.9717365196
10	262	67	2280.9717365196
10	263	68	2280.9717365196
10	264	69	2280.9717365196
10	265	70	2280.9717365196
10	266	71	2280.9717365196
10	267	72	2280.9717365196
10	268	73	2280.9717365196
10	269	74	2280.9717365196
10	270	75	2280.9717365196
10	271	76	2280.9717365196
10	272	77	2280.9717365196
10	273	78	2280.9717365196
10	274	79	2280.9717365196
10	275	80	2280.9717365196
10	276	81	2280.9717365196
10	277	82	2279.8456244239
10	278	83	2277.8182009927
10	279	84	2275.3348375135
10	280	85	2273.2860337478
10	281	86	2271.9876764937
10	282	87	2272.1401155584
10	283	88	2274.7423430905
10	284	89	2278.2796058094
10	285	90	2282.3782662184
10	286	91	2287.0179927188
10	287	92	2292.2962414761
10	288	93	2298.3018062403
10	289	94	2305.0556691651
10	290	95	2311.8634525076
10	291	96	2318.7029433861
10	292	97	2325.5340450347
10	293	98	2332.3590006483
10	294	99	2339.0369865068
10	295	100	2345.7093090506
9	4	3	2445.0530060817
9	5	4	2445.0530060817
9	6	5	2436.6754840495
9	7	6	2428.3056959769
9	8	7	2419.9271347995
9	9	8	2411.5703578253
9	10	9	2403.1900725235
9	11	10	2394.7820943194
9	12	11	2386.4068333226
9	13	12	2378.0346326386
9	14	13	2369.6560892132
9	15	14	2361.2898234193
9	17	15	2352.939293407
9	36	16	2344.556128919
9	38	17	2336.1815292339
9	77	18	2327.7915795013
9	82	19	2319.4265834367
9	215	20	2311.026494373
9	216	21	2302.653165027
9	217	22	2295.5119374393
9	218	23	2290.9333249643
9	219	24	2286.8033537542
9	220	25	2280.2813994683
9	221	26	2273.6688240402
9	222	27	2270.0791186247
9	223	28	2267.3885956252
9	224	29	2264.08643304
9	225	30	2260.5701038686
9	226	31	2257.9761109681
9	227	32	2256.2460436377
9	228	33	2255.2338015427
9	229	34	2254.717037246
9	230	35	2254.4931427075
9	231	36	2254.3607838487
9	232	37	2254.3607401736
9	233	38	2254.3607401736
9	234	39	2254.3607401736
9	235	40	2254.3607401736
9	236	41	2254.3607401736
9	237	42	2254.3607401736
9	238	43	2254.3607401736
9	239	44	2254.3607401736
9	240	45	2254.3607401736
9	241	46	2254.3607401736
9	242	47	2254.3607401736
9	243	48	2254.3607401736
9	244	49	2254.3607401736
9	245	50	2254.3607401736
9	246	51	2254.3607401736
9	247	52	2254.3607401736
9	248	53	2254.3607401736
9	249	54	2254.3607401736
9	250	55	2254.3607401736
9	251	56	2254.3607401736
9	252	57	2254.3607401736
9	253	58	2254.3607401736
9	254	59	2254.3607401736
9	255	60	2254.3607401736
9	256	61	2254.3607401736
9	257	62	2254.3607401736
9	258	63	2254.3607401736
9	259	64	2254.3607401736
9	260	65	2254.3607401736
9	261	66	2254.3607401736
9	262	67	2254.3607401736
9	263	68	2254.3607401736
9	264	69	2254.3607401736
9	265	70	2254.3607401736
9	266	71	2254.3607401736
9	267	72	2254.3607401736
9	268	73	2254.3607401736
9	269	74	2254.3607401736
9	270	75	2254.3607401736
9	271	76	2254.3607401736
9	272	77	2254.3607401736
9	273	78	2254.3607401736
9	274	79	2254.3607401736
9	275	80	2254.3607401736
9	276	81	2254.3607401736
9	277	82	2253.8422511079
9	278	83	2251.4268040535
9	279	84	2247.4452760497
9	280	85	2240.780776444
9	281	86	2232.0262587899
9	282	87	2222.0978415286
9	283	88	2211.9058642695
9	284	89	2200.0862815382
9	285	90	2186.3908170957
9	286	91	2170.8874079402
9	287	92	2153.6420153509
9	288	93	2134.467483079
9	289	94	2113.6518861602
9	290	95	2092.6813913857
9	291	96	2071.7241860267
9	292	97	2050.7966826753
9	293	98	2029.6747873761
9	294	99	2008.6528340525
9	295	100	1987.6487085502
12	4	3	3.9617586426607
12	5	4	5.1124113818075
12	6	5	5.7497459316788
12	7	6	8.1901554707199
12	8	7	7.7495287368658
12	9	8	10.637025703678
12	10	9	11.112966073315
12	11	10	11.933137074224
12	12	11	3.3961924297057
12	13	12	0.973
12	14	13	0.973
12	15	14	0.973
12	17	15	0.973
12	36	16	0.973
12	38	17	0.973
12	77	18	0.973
12	82	19	0.973
12	215	20	0.973
12	216	21	0.973
12	217	22	0.973
12	218	23	0.973
12	219	24	0.973
12	220	25	0.973
12	221	26	0.973
12	222	27	0.973
12	223	28	0.973
12	224	29	0.973
12	225	30	0.973
12	226	31	0.973
12	227	32	0.973
12	228	33	0.973
12	229	34	0.973
12	230	35	0.973
12	231	36	0.973
12	232	37	0.973
12	233	38	0.973
12	234	39	0.973
12	235	40	0.973
12	236	41	0.973
12	237	42	0.973
12	238	43	0.973
12	239	44	0.973
12	240	45	0.973
12	241	46	0.973
12	242	47	0.973
12	243	48	0.973
12	244	49	0.973
12	245	50	0.973
12	246	51	0.973
12	247	52	0.973
12	248	53	0.973
12	249	54	0.973
12	250	55	0.973
12	251	56	0.973
12	252	57	0.973
12	253	58	0.973
12	254	59	0.973
12	255	60	0.973
12	256	61	0.973
12	257	62	2.4609034674215
12	258	63	3.4461054616921
12	259	64	4.6185691332668
12	260	65	5.6447870000187
12	261	66	6.4083361516895
12	262	67	7.4780349057124
12	263	68	8.2806772660203
12	264	69	0.973
12	265	70	0.973
12	266	71	0.973
12	267	72	0.973
12	268	73	0.973
12	269	74	0.973
12	270	75	1.1206189055339
12	271	76	0.973
12	272	77	0.973
12	273	78	0.973
12	274	79	0.973
12	275	80	0.973
12	276	81	0.973
12	277	82	0.973
12	278	83	0.973
12	279	84	0.973
12	280	85	0.973
12	281	86	0.973
12	282	87	0.973
12	283	88	0.973
12	284	89	0.973
12	285	90	0.973
12	286	91	0.973
12	287	92	0.973
12	288	93	0.973
12	289	94	0.973
12	290	95	0.973
12	291	96	0.973
12	292	97	0.973
12	293	98	0.973
12	294	99	0.973
12	295	100	0.973
12	296	101	0.973
12	297	102	0.973
12	298	103	0.973
12	299	104	0.973
12	300	105	0.973
12	301	106	0.973
12	302	107	0.973
12	303	108	0.973
12	304	109	0.973
12	305	110	2.3589630095001
12	306	111	3.264398170838
12	307	112	4.0062089344317
12	308	113	5.464985595244
12	309	114	6.6764466912473
12	310	115	0.973
12	311	116	0.973
12	312	117	0.973
12	313	118	2.2895673841126
12	314	119	5.2276608874633
12	315	120	6.5847614313901
12	316	121	7.2039676515229
12	317	122	8.0525797409199
12	318	123	9.6209500952207
12	319	124	8.8376075195265
12	320	125	11.606808353866
12	321	126	12.339300272661
11	4	3	1.8505604249425
11	5	4	1.9408753749891
11	6	5	1.7976490879292
11	7	6	2.2525302506192
11	8	7	1.7711721954215
11	9	8	2.220266340801
11	10	9	2.0193621406588
11	11	10	1.9344968881644
11	12	11	0.12866702400014
11	13	12	-3.6058691922551
11	14	13	-3.4661584346093
11	15	14	-3.2858650011842
11	17	15	-2.9808989944705
11	36	16	-2.4859596596694
11	38	17	-1.901269453945
11	77	18	-1.1183530412104
11	82	19	-0.52426114242657
11	215	20	-0.43073516073129
11	216	21	-0.00055565274770432
11	217	22	0
11	218	23	0
11	219	24	0
11	220	25	0
11	221	26	0
11	222	27	0
11	223	28	0
11	224	29	0
11	225	30	0
11	226	31	0
11	227	32	0
11	228	33	0
11	229	34	0
11	230	35	0
11	231	36	0
11	232	37	0
11	233	38	0
11	234	39	0
11	235	40	0
11	236	41	0
11	237	42	0
11	238	43	0
11	239	44	0
11	240	45	0
11	241	46	0
11	242	47	0
11	243	48	0
11	244	49	0
11	245	50	0
11	246	51	0
11	247	52	0
11	248	53	0
11	249	54	0
11	250	55	0
11	251	56	0
11	252	57	0
11	253	58	0
11	254	59	0
11	255	60	0
11	256	61	0
11	257	62	2.2686612884649
11	258	63	2.0416139414147
11	259	64	2.0670712923491
11	260	65	2.0149561481993
11	261	66	1.8961098842625
11	262	67	1.9090977403661
11	263	68	1.8433544709976
11	264	69	-3.4284712944079
11	265	70	-3.0860616857661
11	266	71	-2.7359925382839
11	267	72	-2.1215072850957
11	268	73	-1.3658503040011
11	269	74	-0.75882298619422
11	270	75	-0.10084848729752
11	271	76	-0.44331018500787
11	272	77	0
11	273	78	0
11	274	79	0
11	275	80	0
11	276	81	0
11	277	82	0
11	278	83	0
11	279	84	0
11	280	85	0
11	281	86	0
11	282	87	0
11	283	88	0
11	284	89	0
11	285	90	0
11	286	91	0
11	287	92	0
11	288	93	0
11	289	94	0
11	290	95	0
11	291	96	0
11	292	97	0
11	293	98	0
11	294	99	0
11	295	100	0
11	296	101	0
11	297	102	0
11	298	103	0
11	299	104	0
11	300	105	0
11	301	106	0
11	302	107	0
11	303	108	0
11	304	109	0
11	305	110	2.1777398411791
11	306	111	1.9558900484112
11	307	112	1.8086610443075
11	308	113	2.0394042162318
11	309	114	2.061067879023
11	310	115	-0.24346513183774
11	311	116	-2.9890532064308
11	312	117	-2.5768315163041
11	313	118	0.76871968102526
11	314	119	2.1642857557535
11	315	120	2.1933324478683
11	316	121	1.9803432866046
11	317	122	1.9071592041664
11	318	123	2.0231102225045
11	319	124	1.592355753202
11	320	125	1.9758258865052
11	321	126	1.8837578355172
2	3	2	3.8843460057235
2	4	3	5.7349064306661
2	5	4	7.6757818056552
2	6	5	9.4734308935843
2	7	6	11.725961144204
2	8	7	13.497133339625
2	9	8	15.717399680426
2	10	9	17.736761821085
2	11	10	19.671258709249
2	12	11	19.799925733249
2	13	12	16.194056540994
2	14	13	12.727898106385
2	15	14	9.4420331052009
2	17	15	6.4611341107304
2	36	16	3.975174451061
2	38	17	2.073904997116
2	77	18	0.95555195590556
2	82	19	0.43129081347899
2	215	20	0.00055565274770432
2	216	21	0
2	217	22	0
2	218	23	0
2	219	24	0
2	220	25	0
2	221	26	0
2	222	27	0
2	223	28	0
2	224	29	0
2	225	30	0
2	226	31	0
2	227	32	0
2	228	33	0
2	229	34	0
2	230	35	0
2	231	36	0
2	232	37	0
2	233	38	0
2	234	39	0
2	235	40	0
2	236	41	0
2	237	42	0
2	238	43	0
2	239	44	0
2	240	45	0
2	241	46	0
2	242	47	0
2	243	48	0
2	244	49	0
2	245	50	0
2	246	51	0
2	247	52	0
2	248	53	0
2	249	54	0
2	250	55	0
2	251	56	0
2	252	57	0
2	253	58	0
2	254	59	0
2	255	60	0
2	256	61	0
2	257	62	2.2686612884649
2	258	63	4.3102752298796
2	259	64	6.3773465222288
2	260	65	8.392302670428
2	261	66	10.288412554691
2	262	67	12.197510295057
2	263	68	14.040864766054
2	264	69	10.612393471646
2	265	70	7.5263317858803
2	266	71	4.7903392475964
2	267	72	2.6688319625007
2	268	73	1.3029816584996
2	269	74	0.54415867230538
2	270	75	0.44331018500787
2	271	76	0
2	272	77	0
2	273	78	0
2	274	79	0
2	275	80	0
2	276	81	0
2	277	82	0
2	278	83	0
2	279	84	0
2	280	85	0
2	281	86	0
2	282	87	0
2	283	88	0
2	284	89	0
2	285	90	0
2	286	91	0
2	287	92	0
2	288	93	0
2	289	94	0
2	290	95	0
2	291	96	0
2	292	97	0
2	293	98	0
2	294	99	0
2	295	100	0
2	296	101	0
2	297	102	0
2	298	103	0
2	299	104	0
2	300	105	0
2	301	106	0
2	302	107	0
2	303	108	0
2	304	109	0
2	305	110	2.1777398411791
2	306	111	4.1336298895903
2	307	112	5.9422909338978
2	308	113	7.9816951501296
2	309	114	10.042763029153
2	310	115	9.7992978973149
2	311	116	6.8102446908841
2	312	117	4.23341317458
2	313	118	5.0021328556053
2	314	119	7.1664186113588
2	315	120	9.3597510592271
2	316	121	11.340094345832
2	317	122	13.247253549998
2	318	123	15.270363772503
2	319	124	16.862719525705
2	320	125	18.83854541221
2	321	126	20.722303247727
1	2	1	2332.2523312561
1	3	2	2332.2523312561
1	4	3	2331.3055000344
1	5	4	2329.7719584994
1	6	5	2327.6787577718
1	7	6	2325.0051341262
1	8	7	2321.7005936874
1	9	8	2317.7740775617
1	10	9	2313.2234854893
1	11	10	2308.0449268339
1	12	11	2302.2987595048
1	13	12	2296.2607672306
1	14	13	2291.120455016
1	15	14	2287.0330342487
1	17	15	2283.9172869947
1	36	16	2281.6863659116
1	38	17	2280.2377249269
1	77	18	2279.4124906457
1	82	19	2279.0085905256
1	215	20	2278.834697906
1	216	21	2278.7369743581
1	217	22	2278.7369738113
1	218	23	2278.7369738113
1	219	24	2278.7369738113
1	220	25	2278.7369738113
1	221	26	2278.7369738113
1	222	27	2278.7369738113
1	223	28	2278.7369738113
1	224	29	2278.7369738113
1	225	30	2278.7369738113
1	226	31	2278.7369738113
1	227	32	2278.7369738113
1	228	33	2278.7369738113
1	229	34	2278.7369738113
1	230	35	2278.7369738113
1	231	36	2278.7369738113
1	232	37	2278.7369738113
1	233	38	2278.7369738113
1	234	39	2278.7369738113
1	235	40	2278.7369738113
1	236	41	2278.7369738113
1	237	42	2278.7369738113
1	238	43	2278.7369738113
1	239	44	2278.7369738113
1	240	45	2278.7369738113
1	241	46	2278.7369738113
1	242	47	2278.7369738113
1	243	48	2278.7369738113
1	244	49	2278.7369738113
1	245	50	2278.7369738113
1	246	51	2278.7369738113
1	247	52	2278.7369738113
1	248	53	2278.7369738113
1	249	54	2278.7369738113
1	250	55	2278.7369738113
1	251	56	2278.7369738113
1	252	57	2278.7369738113
1	253	58	2278.7369738113
1	254	59	2278.7369738113
1	255	60	2278.7369738113
1	256	61	2278.7369738113
1	257	62	2278.7369738113
1	258	63	2278.3752454676
1	259	64	2277.5545660435
1	260	65	2276.2258327983
1	261	66	2275.0401158868
1	262	67	2275.5924462867
1	263	68	2285.4434509522
1	264	69	2298.075298357
1	265	70	2309.5885527907
1	266	71	2318.0556079457
1	267	72	2323.7635324147
1	268	73	2327.1982972193
1	269	74	2328.9909214674
1	270	75	2329.8004918486
1	271	76	2330.2224709034
1	272	77	2330.2884810828
1	273	78	2330.2884810828
1	274	79	2330.2884810828
1	275	80	2330.2884810828
1	276	81	2330.2884810828
1	277	82	2330.2884810828
1	278	83	2330.2884810828
1	279	84	2330.2884810828
1	280	85	2330.2884810828
1	281	86	2330.2884810828
1	282	87	2330.2884810828
1	283	88	2330.2884810828
1	284	89	2330.2884810828
1	285	90	2330.2884810828
1	286	91	2330.2884810828
1	287	92	2330.2884810828
1	288	93	2330.2884810828
1	289	94	2330.2884810828
1	290	95	2330.2884810828
1	291	96	2330.2884810828
1	292	97	2330.2884810828
1	293	98	2330.2884810828
1	294	99	2330.2884810828
1	295	100	2330.2884810828
1	296	101	2330.2884810828
1	297	102	2330.2884810828
1	298	103	2330.2884810828
1	299	104	2330.2884810828
1	300	105	2330.2884810828
1	301	106	2330.2884810828
1	302	107	2330.2884810828
1	303	108	2330.2884810828
1	304	109	2330.2884810828
1	305	110	2330.2884810828
1	306	111	2331.4556337975
1	307	112	2334.5491245151
1	308	113	2339.4214312856
1	309	114	2346.1630162492
1	310	115	2354.8312043116
1	311	116	2364.8778312684
1	312	117	2372.602920261
1	313	118	2377.6813466176
1	314	119	2381.5696760099
1	315	120	2387.5135507282
1	316	121	2395.4764812871
1	317	122	2405.3613473987
1	318	123	2417.1613998842
1	319	124	2430.7974020494
1	320	125	2446.1677842617
1	321	126	2463.2636465974
0	2	1	2050.8270289986
0	3	2	2050.8270289986
0	4	3	2053.7294031305
0	5	4	2058.4302528487
0	6	5	2064.8466568557
0	7	6	2073.042263348
0	8	7	2083.1718539949
0	9	8	2095.212561674
0	10	9	2109.2279973698
0	11	10	2125.1884618906
0	12	11	2143.0343351237
0	13	12	2162.4400217365
0	14	13	2179.4947976068
0	15	14	2193.1551325703
0	17	15	2203.568093108
0	36	16	2211.0239267513
0	38	17	2215.8653468595
0	77	18	2218.6233151105
0	82	19	2219.9731665809
0	215	20	2220.5543231502
0	216	21	2220.8809194256
0	217	22	2220.8809212529
0	218	23	2220.8809212529
0	219	24	2220.8809212529
0	220	25	2220.8809212529
0	221	26	2220.8809212529
0	222	27	2220.8809212529
0	223	28	2220.8809212529
0	224	29	2220.8809212529
0	225	30	2220.8809212529
0	226	31	2220.8809212529
0	227	32	2220.8809212529
0	228	33	2220.8809212529
0	229	34	2220.8809212529
0	230	35	2220.8809212529
0	231	36	2220.8809212529
0	232	37	2220.8809212529
0	233	38	2220.8809212529
0	234	39	2220.8809212529
0	235	40	2220.8809212529
0	236	41	2220.8809212529
0	237	42	2220.8809212529
0	238	43	2220.8809212529
0	239	44	2220.8809212529
0	240	45	2220.8809212529
0	241	46	2220.8809212529
0	242	47	2220.8809212529
0	243	48	2220.8809212529
0	244	49	2220.8809212529
0	245	50	2220.8809212529
0	246	51	2220.8809212529
0	247	52	2220.8809212529
0	248	53	2220.8809212529
0	249	54	2220.8809212529
0	250	55	2220.8809212529
0	251	56	2220.8809212529
0	252	57	2220.8809212529
0	253	58	2220.8809212529
0	254	59	2220.8809212529
0	255	60	2220.8809212529
0	256	61	2220.8809212529
0	257	62	2220.8809212529
0	258	63	2222.1361728015
0	259	64	2225.3876535647
0	260	65	2230.6520119239
0	261	66	2238.0132024754
0	262	67	2247.3699970271
0	263	68	2252.4515902617
0	264	69	2256.5774982866
0	265	70	2260.3380431491
0	266	71	2263.1036157287
0	267	72	2264.9679805059
0	268	73	2266.0898689532
0	269	74	2266.6753892286
0	270	75	2266.9398171325
0	271	76	2267.0776470725
0	272	77	2267.0992078086
0	273	78	2267.0992078086
0	274	79	2267.0992078086
0	275	80	2267.0992078086
0	276	81	2267.0992078086
0	277	82	2267.0992078086
0	278	83	2267.0992078086
0	279	84	2267.0992078086
0	280	85	2267.0992078086
0	281	86	2267.0992078086
0	282	87	2267.0992078086
0	283	88	2267.0992078086
0	284	89	2267.0992078086
0	285	90	2267.0992078086
0	286	91	2267.0992078086
0	287	92	2267.0992078086
0	288	93	2267.0992078086
0	289	94	2267.0992078086
0	290	95	2267.0992078086
0	291	96	2267.0992078086
0	292	97	2267.0992078086
0	293	98	2267.0992078086
0	294	99	2267.0992078086
0	295	100	2267.0992078086
0	296	101	2267.0992078086
0	297	102	2267.0992078086
0	298	103	2267.0992078086
0	299	104	2267.0992078086
0	300	105	2267.0992078086
0	301	106	2267.0992078086
0	302	107	2267.0992078086
0	303	108	2267.0992078086
0	304	109	2267.0992078086
0	305	110	2267.0992078086
0	306	111	2267.4828600165
0	307	112	2268.5281126039
0	308	113	2270.1744053273
0	309	114	2272.4523042349
0	310	115	2275.3811787094
0	311	116	2278.6924140214
0	312	117	2281.204385954
0	313	118	2282.8557409716
0	314	119	2284.1201114284
0	315	120	2286.0533307863
0	316	121	2288.6414260571
0	317	122	2291.854096983
0	318	123	2295.689966756
0	319	124	2300.1275986123
0	320	125	2305.1296583745
0	321	126	2310.6932496963
22	6	5	4.894919146735
22	7	6	6.0643025077531
22	8	7	7.1430290783258
22	9	8	7.4905666297623
22	10	9	9.3040600914139
22	11	10	10.090808110796
22	12	11	11.325357004101
22	13	12	0.973
22	14	13	0.973
22	15	14	0.973
22	17	15	0.973
22	36	16	0.973
22	38	17	0.973
22	77	18	0.973
22	82	19	0.973
22	215	20	0.973
22	216	21	0.973
22	217	22	1.125869330388
22	218	23	0.973
22	219	24	0.973
22	220	25	0.973
22	221	26	0.973
22	222	27	0.973
22	223	28	0.973
22	224	29	0.973
22	225	30	0.973
22	226	31	0.973
22	227	32	0.973
22	228	33	0.973
22	229	34	0.973
22	230	35	0.973
22	231	36	0.973
22	232	37	0.973
22	233	38	0.973
22	234	39	0.973
22	235	40	0.973
22	236	41	0.973
22	237	42	0.973
22	238	43	0.973
22	239	44	0.973
22	240	45	0.973
22	241	46	0.973
22	242	47	0.973
22	243	48	0.973
22	244	49	0.973
22	245	50	0.973
22	246	51	0.973
22	247	52	0.973
22	248	53	0.973
22	249	54	0.973
22	250	55	0.973
22	251	56	0.973
22	252	57	0.973
22	253	58	0.973
22	254	59	0.973
22	255	60	0.973
22	256	61	0.973
22	257	62	1.3957575904754
22	258	63	2.3677519039384
22	259	64	3.2099933332422
22	260	65	4.5901400421449
22	261	66	5.6838320565421
22	262	67	6.0580906215702
22	263	68	7.713686740132
22	264	69	0.973
22	265	70	0.973
22	266	71	0.973
22	267	72	0.973
22	268	73	0.973
22	269	74	0.973
22	270	75	0.973
22	271	76	0.973
22	272	77	0.973
22	273	78	0.973
22	274	79	0.973
22	275	80	0.973
22	276	81	0.973
22	277	82	0.973
22	278	83	0.973
22	279	84	0.973
22	280	85	0.973
22	281	86	0.973
22	282	87	0.973
22	283	88	0.973
22	284	89	0.973
22	285	90	0.973
22	286	91	0.973
22	287	92	0.973
22	288	93	0.973
22	289	94	0.973
22	290	95	0.973
22	291	96	0.973
22	292	97	0.973
22	293	98	0.973
22	294	99	0.973
22	295	100	0.973
22	296	101	0.973
22	297	102	0.973
22	298	103	0.973
22	299	104	0.973
22	300	105	0.973
22	301	106	0.973
22	302	107	0.973
22	303	108	0.973
22	304	109	0.973
22	305	110	1.3456187816519
22	306	111	2.4341980491769
22	307	112	3.3345246324205
22	308	113	4.4231832760643
22	309	114	5.1696154368799
22	310	115	4.2883590156376
22	311	116	0.973
22	312	117	0.973
22	313	118	0.973
22	314	119	2.4720320953427
22	315	120	0.973
22	316	121	4.2886377394893
22	317	122	5.2487554293957
22	318	123	6.4886982737078
22	319	124	8.0664532834224
22	320	125	8.0453030947954
22	321	126	9.3598396199695
22	322	127	10.168332340323
22	323	128	10.955043061311
21	6	5	2.0704148522485
21	7	6	2.0705765163945
21	8	7	2.0359577251808
21	9	8	1.8092067196034
21	10	9	2.0144532988011
21	11	10	1.9222158128466
21	12	11	1.9388218248706
21	13	12	-0.94745188815756
21	14	13	-2.8939859118868
21	15	14	-2.6933340819098
21	17	15	-2.3612035397941
21	36	16	-2.3269488380353
21	38	17	-1.8837215017274
21	77	18	-1.7861646850213
21	82	19	-1.5530743723821
21	215	20	-1.0061177098819
21	216	21	-0.71270371095851
21	217	22	-0.050113999592649
21	218	23	-0.43861800635175
21	219	24	0
21	220	25	0
21	221	26	0
21	222	27	0
21	223	28	0
21	224	29	0
21	225	30	0
21	226	31	0
21	227	32	0
21	228	33	0
21	229	34	0
21	230	35	0
21	231	36	0
21	232	37	0
21	233	38	0
21	234	39	0
21	235	40	0
21	236	41	0
21	237	42	0
21	238	43	0
21	239	44	0
21	240	45	0
21	241	46	0
21	242	47	0
21	243	48	0
21	244	49	0
21	245	50	0
21	246	51	0
21	247	52	0
21	248	53	0
21	249	54	0
21	250	55	0
21	251	56	0
21	252	57	0
21	253	58	0
21	254	59	0
21	255	60	0
21	256	61	0
21	257	62	0.99324091356408
21	258	63	1.7202926117617
21	259	64	1.7461053365399
21	260	65	2.0143104217504
21	261	66	2.0094012783933
21	262	67	1.7633132170676
21	263	68	1.9830461362167
21	264	69	-1.0461347999163
21	265	70	-2.3602151980724
21	266	71	-2.0341391766478
21	267	72	-1.7478678592256
21	268	73	-1.4556621024705
21	269	74	-1.3494520800663
21	270	75	-0.9558968065638
21	271	76	-0.70518894694089
21	272	77	-0.14272286204487
21	273	78	-0.43243008334539
21	274	79	0
21	275	80	0
21	276	81	0
21	277	82	0
21	278	83	0
21	279	84	0
21	280	85	0
21	281	86	0
21	282	87	0
21	283	88	0
21	284	89	0
21	285	90	0
21	286	91	0
21	287	92	0
21	288	93	0
21	289	94	0
21	290	95	0
21	291	96	0
21	292	97	0
21	293	98	0
21	294	99	0
21	295	100	0
21	296	101	0
21	297	102	0
21	298	103	0
21	299	104	0
21	300	105	0
21	301	106	0
21	302	107	0
21	303	108	0
21	304	109	0
21	305	110	0.89360427518504
21	306	111	1.8210556539023
21	307	112	1.8251467022741
21	308	113	1.9140221238596
21	309	114	1.8116310814279
21	310	115	1.1643198773504
21	311	116	-2.1657338468518
21	312	117	-1.6770981377587
21	313	118	-0.36404338836378
21	314	119	0.73483998578801
21	315	120	-2.4075260823638
21	316	121	2.1154679680487
21	317	122	2.0135527254641
21	318	123	2.0560221040202
21	319	124	2.1700487000286
21	320	125	1.8236751555582
21	321	126	1.8969394107722
21	322	127	1.8355020734016
21	323	128	1.780874179164
15	5	4	4.7917914957539
15	6	5	6.8622063480024
15	7	6	8.9327828643969
15	8	7	10.968740589578
15	9	8	12.777947309181
15	10	9	14.792400607982
15	11	10	16.714616420829
15	12	11	18.653438245699
15	13	12	17.705986357542
15	14	13	14.812000445655
15	15	14	12.118666363745
15	17	15	9.757462823951
15	36	16	7.4305139859157
15	38	17	5.5467924841883
15	77	18	3.760627799167
15	82	19	2.2075534267849
15	215	20	1.2014357169029
15	216	21	0.4887320059444
15	217	22	0.43861800635175
15	218	23	0
15	219	24	0
15	220	25	0
15	221	26	0
15	222	27	0
15	223	28	0
15	224	29	0
15	225	30	0
15	226	31	0
15	227	32	0
15	228	33	0
15	229	34	0
15	230	35	0
15	231	36	0
15	232	37	0
15	233	38	0
15	234	39	0
15	235	40	0
15	236	41	0
15	237	42	0
15	238	43	0
15	239	44	0
15	240	45	0
15	241	46	0
15	242	47	0
15	243	48	0
15	244	49	0
15	245	50	0
15	246	51	0
15	247	52	0
15	248	53	0
15	249	54	0
15	250	55	0
15	251	56	0
15	252	57	0
15	253	58	0
15	254	59	0
15	255	60	0
15	256	61	0
15	257	62	0.99324091356408
15	258	63	2.7135335253258
15	259	64	4.4596388618657
15	260	65	6.4739492836161
15	261	66	8.4833505620095
15	262	67	10.246663779077
15	263	68	12.229709915294
15	264	69	11.183575115378
15	265	70	8.8233599173052
15	266	71	6.7892207406573
15	267	72	5.0413528814318
15	268	73	3.5856907789613
15	269	74	2.236238698895
15	270	75	1.2803418923312
15	271	76	0.57515294539026
15	272	77	0.43243008334539
15	273	78	0
15	274	79	0
15	275	80	0
15	276	81	0
15	277	82	0
15	278	83	0
15	279	84	0
15	280	85	0
15	281	86	0
15	282	87	0
15	283	88	0
15	284	89	0
15	285	90	0
15	286	91	0
15	287	92	0
15	288	93	0
15	289	94	0
15	290	95	0
15	291	96	0
15	292	97	0
15	293	98	0
15	294	99	0
15	295	100	0
15	296	101	0
15	297	102	0
15	298	103	0
15	299	104	0
15	300	105	0
15	301	106	0
15	302	107	0
15	303	108	0
15	304	109	0
15	305	110	0.89360427518504
15	306	111	2.7146599290873
15	307	112	4.5398066313615
15	308	113	6.4538287552211
15	309	114	8.265459836649
15	310	115	9.4297797139994
15	311	116	7.2640458671476
15	312	117	5.586947729389
15	313	118	5.2229043410252
15	314	119	5.9577443268132
15	315	120	3.5502182444494
15	316	121	5.6656862124981
15	317	122	7.6792389379622
15	318	123	9.7352610419824
15	319	124	11.905309742011
15	320	125	13.728984897569
15	321	126	15.625924308341
15	322	127	17.461426381743
15	323	128	19.242300560907
8	4	3	2332.4037806754
8	5	4	2332.4037806754
8	6	5	2331.1930058161
8	7	6	2329.367062646
8	8	7	2326.8863421643
8	9	8	2323.7735105135
8	10	9	2320.0763802363
8	11	10	2315.7803755716
8	12	11	2310.8872698228
8	13	12	2305.4070545791
8	14	13	2299.7742366841
8	15	14	2295.0047027851
8	17	15	2291.187964927
8	36	16	2288.0932833941
8	38	17	2285.6674367866
8	77	18	2283.8429282321
8	82	19	2282.5457164466
8	215	20	2281.721336099
8	216	21	2281.2471952883
8	217	22	2281.0222288374
8	218	23	2280.8960485229
8	219	24	2280.8874137703
8	220	25	2280.8874137703
8	221	26	2280.8874137703
8	222	27	2280.8874137703
8	223	28	2280.8874137703
8	224	29	2280.8874137703
8	225	30	2280.8874137703
8	226	31	2280.8874137703
8	227	32	2280.8874137703
8	228	33	2280.8874137703
8	229	34	2280.8874137703
8	230	35	2280.8874137703
8	231	36	2280.8874137703
8	232	37	2280.8874137703
8	233	38	2280.8874137703
8	234	39	2280.8874137703
8	235	40	2280.8874137703
8	236	41	2280.8874137703
8	237	42	2280.8874137703
8	238	43	2280.8874137703
8	239	44	2280.8874137703
8	240	45	2280.8874137703
8	241	46	2280.8874137703
8	242	47	2280.8874137703
8	243	48	2280.8874137703
8	244	49	2280.8874137703
8	245	50	2280.8874137703
8	246	51	2280.8874137703
8	247	52	2280.8874137703
8	248	53	2280.8874137703
8	249	54	2280.8874137703
8	250	55	2280.8874137703
8	251	56	2280.8874137703
8	252	57	2280.8874137703
8	253	58	2280.8874137703
8	254	59	2280.8874137703
8	255	60	2280.8874137703
8	256	61	2280.8874137703
8	257	62	2280.8874137703
8	258	63	2280.7464686777
8	259	64	2280.1944869671
8	260	65	2279.146391204
8	261	66	2277.6885801252
8	262	67	2275.8303087869
8	263	68	2274.6429491085
8	264	69	2279.845775191
8	265	70	2291.3305648246
8	266	71	2300.7065775348
8	267	72	2308.0338167274
8	268	73	2313.5865082271
8	269	74	2317.5974549641
8	270	75	2320.2408497354
8	271	76	2321.8012906467
8	272	77	2322.6426223283
8	273	78	2323.0686007529
8	274	79	2323.1582683757
8	275	80	2323.1582683757
8	276	81	2323.1582683757
8	277	82	2323.1582683757
8	278	83	2323.1582683757
8	279	84	2323.1582683757
8	280	85	2323.1582683757
8	281	86	2323.1582683757
8	282	87	2323.1582683757
8	283	88	2323.1582683757
8	284	89	2323.1582683757
8	285	90	2323.1582683757
8	286	91	2323.1582683757
8	287	92	2323.1582683757
8	288	93	2323.1582683757
8	289	94	2323.1582683757
8	290	95	2323.1582683757
8	291	96	2323.1582683757
8	292	97	2323.1582683757
8	293	98	2323.1582683757
8	294	99	2323.1582683757
8	295	100	2323.1582683757
8	296	101	2323.1582683757
8	297	102	2323.1582683757
8	298	103	2323.1582683757
8	299	104	2323.1582683757
8	300	105	2323.1582683757
8	301	106	2323.1582683757
8	302	107	2323.1582683757
8	303	108	2323.1582683757
8	304	109	2323.1582683757
8	305	110	2323.1582683757
8	306	111	2323.5963628148
8	307	112	2325.3885904248
8	308	113	2328.9575165498
8	309	114	2334.2749825409
8	310	115	2341.3415472014
8	311	116	2350.1603194953
8	312	117	2357.969632352
8	313	118	2364.0302061634
8	314	119	2368.8863303665
8	315	120	2374.4626496227
8	316	121	2378.8083380574
8	317	122	2383.0826717808
8	318	123	2389.505395296
8	319	124	2397.886822074
8	320	125	2408.3044848884
8	321	126	2420.5435376545
8	322	127	2434.59350659
8	323	128	2450.3916822468
7	4	3	2050.3627827138
7	5	4	2050.3627827138
7	6	5	2054.0742378824
7	7	6	2059.6714025109
7	8	7	2067.2756922617
7	9	8	2076.8176273537
7	10	9	2088.1506453544
7	11	10	2101.3475896812
7	12	11	2116.4282802552
7	13	12	2133.3184589297
7	14	13	2151.1479756322
7	15	14	2166.5134754903
7	17	15	2179.269176598
7	36	16	2189.6117345951
7	38	17	2197.7190176751
7	77	18	2203.8166032719
7	82	19	2208.1519405217
7	215	20	2210.90705489
7	216	21	2212.4916537515
7	217	22	2213.2435012487
7	218	23	2213.6652012547
7	219	24	2213.6940589673
7	220	25	2213.6940589673
7	221	26	2213.6940589673
7	222	27	2213.6940589673
7	223	28	2213.6940589673
7	224	29	2213.6940589673
7	225	30	2213.6940589673
7	226	31	2213.6940589673
7	227	32	2213.6940589673
7	228	33	2213.6940589673
7	229	34	2213.6940589673
7	230	35	2213.6940589673
7	231	36	2213.6940589673
7	232	37	2213.6940589673
7	233	38	2213.6940589673
7	234	39	2213.6940589673
7	235	40	2213.6940589673
7	236	41	2213.6940589673
7	237	42	2213.6940589673
7	238	43	2213.6940589673
7	239	44	2213.6940589673
7	240	45	2213.6940589673
7	241	46	2213.6940589673
7	242	47	2213.6940589673
7	243	48	2213.6940589673
7	244	49	2213.6940589673
7	245	50	2213.6940589673
7	246	51	2213.6940589673
7	247	52	2213.6940589673
7	248	53	2213.6940589673
7	249	54	2213.6940589673
7	250	55	2213.6940589673
7	251	56	2213.6940589673
7	252	57	2213.6940589673
7	253	58	2213.6940589673
7	254	59	2213.6940589673
7	255	60	2213.6940589673
7	256	61	2213.6940589673
7	257	62	2213.6940589673
7	258	63	2214.1651034927
7	259	64	2216.0098499698
7	260	65	2219.5126308219
7	261	66	2224.8566981197
7	262	67	2232.219053422
7	263	68	2241.6215049079
7	264	69	2250.623235738
7	265	70	2254.3744832156
7	266	71	2257.4369462777
7	267	72	2259.8302236834
7	268	73	2261.6438851127
7	269	74	2262.9539703916
7	270	75	2263.817375668
7	271	76	2264.3270584937
7	272	77	2264.60186051
7	273	78	2264.7409967538
7	274	79	2264.7702846602
7	275	80	2264.7702846602
7	276	81	2264.7702846602
7	277	82	2264.7702846602
7	278	83	2264.7702846602
7	279	84	2264.7702846602
7	280	85	2264.7702846602
7	281	86	2264.7702846602
7	282	87	2264.7702846602
7	283	88	2264.7702846602
7	284	89	2264.7702846602
7	285	90	2264.7702846602
7	286	91	2264.7702846602
7	287	92	2264.7702846602
7	288	93	2264.7702846602
7	289	94	2264.7702846602
7	290	95	2264.7702846602
7	291	96	2264.7702846602
7	292	97	2264.7702846602
7	293	98	2264.7702846602
7	294	99	2264.7702846602
7	295	100	2264.7702846602
7	296	101	2264.7702846602
7	297	102	2264.7702846602
7	298	103	2264.7702846602
7	299	104	2264.7702846602
7	300	105	2264.7702846602
7	301	106	2264.7702846602
7	302	107	2264.7702846602
7	303	108	2264.7702846602
7	304	109	2264.7702846602
7	305	110	2264.7702846602
7	306	111	2264.9133783269
7	307	112	2265.4987690494
7	308	113	2266.6644782657
7	309	114	2268.4354833918
7	310	115	2270.8231889547
7	311	116	2273.8029439949
7	312	117	2276.4416150672
7	313	118	2278.4167912454
7	314	119	2279.9958601352
7	315	120	2281.8091152928
7	316	121	2283.2222054703
7	317	122	2284.6120931925
7	318	123	2286.7007690828
7	319	124	2289.424808622
7	320	125	2292.8106432971
7	321	126	2296.7906326352
7	322	127	2301.3629837519
7	323	128	2306.5042624578
vector 30 Thesis.node[6].veinsmobility posx ETV
vector 31 Thesis.node[6].veinsmobility posy ETV
vector 32 Thesis.node[6].veinsmobility speed ETV
vector 33 Thesis.node[7].veinsmobility posx ETV
vector 34 Thesis.node[7].veinsmobility posy ETV
vector 35 Thesis.node[6].veinsmobility acceleration ETV
vector 36 Thesis.node[6].veinsmobility co2emission ETV
vector 37 Thesis.node[7].veinsmobility speed ETV
vector 38 Thesis.node[7].veinsmobility acceleration ETV
vector 39 Thesis.node[7].veinsmobility co2emission ETV
vector 40 Thesis.node[8].veinsmobility posx ETV
vector 41 Thesis.node[8].veinsmobility posy ETV
vector 42 Thesis.node[8].veinsmobility speed ETV
vector 43 Thesis.node[8].veinsmobility acceleration ETV
vector 44 Thesis.node[8].veinsmobility co2emission ETV
18	6	5	1.1665845543948
18	7	6	1.1724302479925
18	8	7	1.1777896323603
18	9	8	1.1646466470641
18	10	9	1.1749551177512
18	11	10	1.1741219326646
18	12	11	1.185353720759
18	13	12	1.1688439493568
18	14	13	1.1807909872598
18	15	14	1.1776961561177
18	17	15	1.1729084175129
18	36	16	1.1767568488281
18	38	17	1.1880300316144
18	77	18	1.1635212895003
18	82	19	1.1727459669105
18	215	20	1.1888275806604
18	216	21	1.1794030579771
18	217	22	1.1705040591947
18	218	23	1.1830438125888
18	219	24	1.1574616857216
18	220	25	1.1874689941921
18	221	26	1.1795447049397
18	222	27	1.1583516266016
18	223	28	1.1844474016789
18	224	29	1.1715353768196
18	225	30	1.1823753427052
18	226	31	1.1630472923368
18	227	32	1.1894630240669
18	228	33	1.1763964918277
18	229	34	1.1830063096073
18	230	35	1.1543145034666
18	231	36	1.1752000929618
18	232	37	1.185782947719
18	233	38	1.1663851400762
18	234	39	1.1740910182074
18	235	40	1.1905168055276
18	236	41	1.1725958856224
18	237	42	1.1702723669869
18	238	43	1.1872766219419
18	239	44	1.1716323883285
18	240	45	1.1616626173626
18	241	46	1.1948283323222
18	242	47	1.1746501770371
18	243	48	1.1634417863396
18	244	49	1.1740764588916
18	245	50	1.1905152691818
18	246	51	1.1705529842649
18	247	52	1.1799207222675
18	248	53	1.1756617566012
18	249	54	1.1594910962424
18	250	55	1.1754412183779
18	251	56	1.197446951293
18	252	57	1.1581055668974
18	253	58	1.1771119666071
18	254	59	1.19038178395
18	255	60	1.1645310330107
18	256	61	1.1847039349907
18	257	62	1.1571539812847
18	258	63	1.1936457064317
18	259	64	1.1618159365433
18	260	65	1.1947866749274
18	261	66	1.1692253831969
18	262	67	1.160419790374
18	263	68	1.1873715174174
18	264	69	1.1826301924371
18	265	70	1.1766115510281
18	266	71	1.1592622228571
18	267	72	1.1787946046455
18	268	73	1.1795692100208
18	269	74	1.1734065289335
18	270	75	1.1719740001202
18	271	76	1.176886075203
18	272	77	0.973
18	273	78	0.973
18	274	79	0.973
18	275	80	0.973
18	276	81	0.973
18	277	82	0.973
18	278	83	1.5662805611674
18	279	84	1.2099655785634
18	280	85	1.1606682738201
18	281	86	1.1687258750965
18	282	87	1.1860922999912
18	283	88	1.1753188887185
18	284	89	1.1705965480084
18	285	90	1.192121407749
18	286	91	1.1755974873698
18	287	92	1.1647825922691
18	288	93	1.1900959227211
18	289	94	1.173672806251
18	290	95	1.1590017549423
18	291	96	1.1917975025362
18	292	97	1.163459408876
18	293	98	1.1907020277522
18	294	99	1.1792639547899
18	295	100	1.1529732372829
18	296	101	1.1839490009764
18	297	102	1.1750725936626
18	298	103	1.1861023890736
18	299	104	1.1699409879567
18	300	105	1.1843052024954
18	301	106	1.1749172766056
18	302	107	1.1567768302263
18	303	108	1.1966769596856
18	304	109	1.1646662586441
18	305	110	1.1734770856372
18	306	111	1.1881401558464
18	307	112	1.1781968543987
18	308	113	1.1676664546414
18	309	114	1.1654838386969
18	310	115	1.1754412066661
18	311	116	1.171257166958
18	312	117	1.1874666210286
18	313	118	1.1612071344974
18	314	119	1.1991088463896
18	315	120	1.1622948063782
18	316	121	1.180001112018
18	317	122	1.1701146337611
18	318	123	1.1730600218298
18	319	124	1.182937715913
18	320	125	1.1676276850718
18	321	126	1.1699576330858
18	322	127	1.1744093806329
18	323	128	1.1939259324111
18	324	129	1.1604020417407
18	325	130	1.1858992676607
18	326	131	1.1710917143661
18	327	132	1.1780836106046
18	328	133	1.1637414901205
18	329	134	1.1721159599791
18	330	135	1.1935052706489
18	331	136	1.1718873733451
18	332	137	1.1652282504429
18	333	138	1.1946858466583
18	334	139	1.1763402741342
18	335	140	1.1646729995228
18	336	141	1.1832086711141
18	337	142	1.171039255592
18	338	143	1.1778517675161
18	339	144	1.1856315892118
18	340	145	1.1706245908858
18	341	146	1.181716147614
18	342	147	1.1677374900306
18	343	148	1.1751065269853
18	344	149	1.1824068556821
18	345	150	1.1739185314909
18	346	151	1.1725699010753
18	347	152	1.1788422618135
18	348	153	1.1754941980893
18	349	154	1.1728577654251
18	350	155	1.1653275587819
18	351	156	1.1818892428591
18	352	157	1.1822679053605
18	353	158	1.1657787615076
18	354	159	1.1878308959818
18	355	160	1.1674230424475
18	356	161	1.1828894781982
18	357	162	1.1719968776669
18	358	163	1.1843061616645
18	359	164	1.1796650109014
18	360	165	1.1533195515285
18	361	166	1.1903332864687
18	362	167	1.1630669167304
18	363	168	1.1867464287049
18	364	169	1.1729188262798
18	365	170	1.1849681498926
18	366	171	1.1679543101947
18	367	172	1.17166504132
18	368	173	1.1741052677872
18	369	174	1.1800632799962
18	370	175	1.162436888147
18	371	176	1.1896298499251
18	372	177	1.1807266025406
18	373	178	1.1644522893576
18	374	179	1.1908084278242
18	375	180	1.1592439072407
18	376	181	1.1858515712139
18	377	182	1.1817050324246
18	378	183	1.1596782228686
18	379	184	1.1940646413149
18	380	185	1.1547818888133
18	381	186	1.1972877056809
18	382	187	1.1546691463783
18	383	188	1.1759709573337
18	384	189	1.1922210476629
18	385	190	1.1588393384515
18	386	191	1.1777723197997
18	387	192	1.1736518317478
18	388	193	1.1823709725584
18	389	194	1.178073391076
18	390	195	1.1667484452195
18	391	196	1.1886307923489
18	392	197	1.1788238990102
18	393	198	1.1648549004867
18	394	199	1.1738629362439
18	395	200	1.1798944469777
17	6	5	-0.028005937217838
17	7	6	-0.0088824640907761
17	8	7	0.0065799224183947
17	9	8	-0.029845848799192
17	10	9	0.0020885265419364
17	11	10	-0.00044663865183892
17	12	11	0.029505193492191
17	13	12	-0.018468811694119
17	14	13	0.015959195896155
17	15	14	0.0056177655965763
17	17	15	-0.0078625139334085
17	36	16	0.0034238313512309
17	38	17	0.032327986975563
17	77	18	-0.036563062878688
17	82	19	-0.007204834562597
17	215	20	0.036039185975419
17	216	21	0.0066972167082391
17	217	22	-0.017580119213866
17	218	23	0.017586546730147
17	219	24	-0.053216164103813
17	220	25	0.034084114433628
17	221	26	0.0087062867047887
17	222	27	-0.049662171368254
17	223	28	0.027223385453302
17	224	29	-0.010808628624848
17	225	30	0.019458694409372
17	226	31	-0.035080315008397
17	227	32	0.04013672315826
17	228	33	0.00043937619516821
17	229	34	0.01764471227135
17	230	35	-0.061972301142911
17	231	36	0.0030093051868283
17	232	37	0.030707152004147
17	233	38	-0.025275114878443
17	234	39	-0.0011127076059994
17	235	40	0.042305469509706
17	236	41	-0.010373847261589
17	237	42	-0.015341727865032
17	238	43	0.031529043901375
17	239	44	-0.013656363508845
17	240	45	-0.039257685049152
17	241	46	0.054034128778666
17	242	47	-0.0057830750948697
17	243	48	-0.035319758430382
17	244	49	-0.0020699466242351
17	245	50	0.041387444604576
17	246	51	-0.01646297262697
17	247	52	0.010436790697794
17	248	53	-0.0021253791702394
17	249	54	-0.045843649309568
17	250	55	0.0035563559504226
17	251	56	0.060356327157933
17	252	57	-0.051584323809948
17	253	58	0.0063933446169055
17	254	59	0.040131466392065
17	255	60	-0.033315367893212
17	256	61	0.024544177609237
17	257	62	-0.052850899616412
17	258	63	0.051734199805651
17	259	64	-0.039699224742233
17	260	65	0.052755701326532
17	261	66	-0.020974068740745
17	262	67	-0.042732431724693
17	263	68	0.035420399476101
17	264	69	0.01801827324218
17	265	70	-0.00010653691586193
17	266	71	-0.047093514666712
17	267	72	0.011944050088964
17	268	73	0.012362251759947
17	269	74	-0.0056989887121341
17	270	75	-0.008840045435742
17	271	76	0.0055223057441049
17	272	77	-1.3447698677515
17	273	78	0
17	274	79	0
17	275	80	0
17	276	81	0
17	277	82	0
17	278	83	1.2792264513398
17	279	84	0.099876531544841
17	280	85	-0.043443113164459
17	281	86	-0.016160425164142
17	282	87	0.032641230936861
17	283	88	-0.00036512191096949
17	284	89	-0.013036023576408
17	285	90	0.045301143028256
17	286	91	-0.0037059261295427
17	287	92	-0.032243672321783
17	288	93	0.038742201496562
17	289	94	-0.0091240995809332
17	290	95	-0.047939970908273
17	291	96	0.045841752855469
17	292	97	-0.0353473312215
17	293	98	0.041454899247684
17	294	99	0.0061738937155396
17	295	100	-0.065949391460486
17	296	101	0.026662508429985
17	297	102	-0.00056399418907738
17	298	103	0.028505916222154
17	299	104	-0.017821424747429
17	300	105	0.022349454763268
17	301	106	-0.0051243445907152
17	302	107	-0.05401025359687
17	303	108	0.05945843660609
17	304	109	-0.03268068486553
17	305	110	-0.0048622784541092
17	306	111	0.034361236628481
17	307	112	0.0038491919177532
17	308	113	-0.024602553554966
17	309	114	-0.027711308163513
17	310	115	0.0029107959966899
17	311	116	-0.0088347567038403
17	312	117	0.035580070818671
17	313	118	-0.03981584584431
17	314	119	0.065956956322124
17	315	120	-0.039638140232354
17	316	121	0.0128890421345
17	317	122	-0.01520778479365
17	318	123	-0.0053304568185317
17	319	124	0.021670021427175
17	320	125	-0.022114039133562
17	321	126	-0.013043227453535
17	322	127	0.00078065066999344
17	323	128	0.051917601215084
17	324	129	-0.044010070511528
17	325	130	0.030087827407341
17	326	131	-0.013148711845538
17	327	132	0.0072158538225471
17	328	133	-0.032550506584812
17	329	134	-0.0055087104394465
17	330	135	0.051781783857021
17	331	136	-0.011968063594799
17	332	137	-0.02863716904863
17	333	138	0.053038486447703
17	334	139	-0.0017226527820133
17	335	140	-0.032735125116435
17	336	141	0.020822183254899
17	337	142	-0.014095855585765
17	338	143	0.005851673550852
17	339	144	0.025322035184622
17	340	145	-0.017262899831015
17	341	146	0.014103395870835
17	342	147	-0.024640892127839
17	343	148	-0.0018721986594352
17	344	149	0.017591839940805
17	345	150	-0.0070235574740865
17	346	151	-0.0097425878468331
17	347	152	0.0081541016374507
17	348	153	-0.0017546041150731
17	349	154	-0.0085557364056716
17	350	155	-0.027997629642616
17	351	156	0.020334192959126
17	352	157	0.018474917322035
17	353	158	-0.028005094597271
17	354	159	0.034275236022141
17	355	160	-0.024243339495216
17	356	161	0.020027472168699
17	357	162	-0.011396453143486
17	358	163	0.022497980131043
17	359	164	0.0074173861260836
17	360	165	-0.064936941133864
17	361	166	0.043170347053092
17	362	167	-0.035345157860623
17	363	168	0.03272448716517
17	364	169	-0.0081972183478582
17	365	170	0.024584051069622
17	366	171	-0.023537773587224
17	367	172	-0.010675167270367
17	368	173	-0.0027424607510005
17	369	174	0.013500932610542
17	370	175	-0.036016203440441
17	371	176	0.041741437437142
17	372	177	0.012622587544481
17	373	178	-0.032493103693317
17	374	179	0.04146632086809
17	375	180	-0.047861492574965
17	376	181	0.02965277964702
17	377	182	0.014711543254735
17	378	183	-0.046287644137111
17	379	184	0.051008462857377
17	380	185	-0.060511657340814
17	381	186	0.060641990825792
17	382	187	-0.060843439730686
17	383	188	0.00511602108923
17	384	189	0.047027345782327
17	385	190	-0.048229102685582
17	386	191	0.0094296368964326
17	387	192	-0.0029200700939529
17	388	193	0.020728794802886
17	389	194	0.0065588504367042
17	390	195	-0.024727069814819
17	391	196	0.036639300928477
17	392	197	0.006090381599885
17	393	198	-0.031973661712578
17	394	199	-0.0036951233535849
17	395	200	0.012866430915892
13	5	4	1.3862204565602
13	6	5	1.3582145193424
13	7	6	1.3493320552516
13	8	7	1.35591197767
13	9	8	1.3260661288708
13	10	9	1.3281546554127
13	11	10	1.3277080167609
13	12	11	1.3572132102531
13	13	12	1.338744398559
13	14	13	1.3547035944551
13	15	14	1.3603213600517
13	17	15	1.3524588461183
13	36	16	1.3558826774695
13	38	17	1.3882106644451
13	77	18	1.3516476015664
13	82	19	1.3444427670038
13	215	20	1.3804819529792
13	216	21	1.3871791696874
13	217	22	1.3695990504736
13	218	23	1.3871855972037
13	219	24	1.3339694330999
13	220	25	1.3680535475335
13	221	26	1.3767598342383
13	222	27	1.3270976628701
13	223	28	1.3543210483234
13	224	29	1.3435124196985
13	225	30	1.3629711141079
13	226	31	1.3278907990995
13	227	32	1.3680275222578
13	228	33	1.3684668984529
13	229	34	1.3861116107243
13	230	35	1.3241393095814
13	231	36	1.3271486147682
13	232	37	1.3578557667723
13	233	38	1.3325806518939
13	234	39	1.3314679442879
13	235	40	1.3737734137976
13	236	41	1.363399566536
13	237	42	1.348057838671
13	238	43	1.3795868825724
13	239	44	1.3659305190635
13	240	45	1.3266728340144
13	241	46	1.380706962793
13	242	47	1.3749238876982
13	243	48	1.3396041292678
13	244	49	1.3375341826435
13	245	50	1.3789216272481
13	246	51	1.3624586546212
13	247	52	1.3728954453189
13	248	53	1.3707700661487
13	249	54	1.3249264168391
13	250	55	1.3284827727896
13	251	56	1.3888390999475
13	252	57	1.3372547761375
13	253	58	1.3436481207545
13	254	59	1.3837795871465
13	255	60	1.3504642192533
13	256	61	1.3750083968625
13	257	62	1.3221574972461
13	258	63	1.3738916970518
13	259	64	1.3341924723095
13	260	65	1.3869481736361
13	261	66	1.3659741048953
13	262	67	1.3232416731706
13	263	68	1.3586620726467
13	264	69	1.3766803458889
13	265	70	1.3765738089731
13	266	71	1.3294802943063
13	267	72	1.3414243443953
13	268	73	1.3537865961553
13	269	74	1.3480876074431
13	270	75	1.3392475620074
13	271	76	1.3447698677515
13	272	77	0
13	273	78	0
13	274	79	0
13	275	80	0
13	276	81	0
13	277	82	0
13	278	83	1.2792264513398
13	279	84	1.3791029828846
13	280	85	1.3356598697202
13	281	86	1.319499444556
13	282	87	1.3521406754929
13	283	88	1.3517755535819
13	284	89	1.3387395300055
13	285	90	1.3840406730338
13	286	91	1.3803347469042
13	287	92	1.3480910745824
13	288	93	1.386833276079
13	289	94	1.3777091764981
13	290	95	1.3297692055898
13	291	96	1.3756109584453
13	292	97	1.3402636272238
13	293	98	1.3817185264715
13	294	99	1.387892420187
13	295	100	1.3219430287265
13	296	101	1.3486055371565
13	297	102	1.3480415429674
13	298	103	1.3765474591896
13	299	104	1.3587260344421
13	300	105	1.3810754892054
13	301	106	1.3759511446147
13	302	107	1.3219408910178
13	303	108	1.3813993276239
13	304	109	1.3487186427584
13	305	110	1.3438563643043
13	306	111	1.3782176009328
13	307	112	1.3820667928505
13	308	113	1.3574642392955
13	309	114	1.329752931132
13	310	115	1.3326637271287
13	311	116	1.3238289704249
13	312	117	1.3594090412436
13	313	118	1.3195931953992
13	314	119	1.3855501517214
13	315	120	1.345912011489
13	316	121	1.3588010536235
13	317	122	1.3435932688299
13	318	123	1.3382628120113
13	319	124	1.3599328334385
13	320	125	1.3378187943049
13	321	126	1.3247755668514
13	322	127	1.3255562175214
13	323	128	1.3774738187365
13	324	129	1.333463748225
13	325	130	1.3635515756323
13	326	131	1.3504028637868
13	327	132	1.3576187176093
13	328	133	1.3250682110245
13	329	134	1.3195595005851
13	330	135	1.3713412844421
13	331	136	1.3593732208473
13	332	137	1.3307360517986
13	333	138	1.3837745382463
13	334	139	1.3820518854643
13	335	140	1.3493167603479
13	336	141	1.3701389436028
13	337	142	1.356043088017
13	338	143	1.3618947615679
13	339	144	1.3872167967525
13	340	145	1.3699538969215
13	341	146	1.3840572927923
13	342	147	1.3594164006645
13	343	148	1.3575442020051
13	344	149	1.3751360419459
13	345	150	1.3681124844718
13	346	151	1.3583698966249
13	347	152	1.3665239982624
13	348	153	1.3647693941473
13	349	154	1.3562136577416
13	350	155	1.328216028099
13	351	156	1.3485502210582
13	352	157	1.3670251383802
13	353	158	1.3390200437829
13	354	159	1.3732952798051
13	355	160	1.3490519403098
13	356	161	1.3690794124785
13	357	162	1.3576829593351
13	358	163	1.3801809394661
13	359	164	1.3875983255922
13	360	165	1.3226613844583
13	361	166	1.3658317315114
13	362	167	1.3304865736508
13	363	168	1.363211060816
13	364	169	1.3550138424681
13	365	170	1.3795978935377
13	366	171	1.3560601199505
13	367	172	1.3453849526801
13	368	173	1.3426424919291
13	369	174	1.3561434245397
13	370	175	1.3201272210992
13	371	176	1.3618686585364
13	372	177	1.3744912460809
13	373	178	1.3419981423875
13	374	179	1.3834644632556
13	375	180	1.3356029706807
13	376	181	1.3652557503277
13	377	182	1.3799672935824
13	378	183	1.3336796494453
13	379	184	1.3846881123027
13	380	185	1.3241764549619
13	381	186	1.3848184457877
13	382	187	1.323975006057
13	383	188	1.3290910271462
13	384	189	1.3761183729285
13	385	190	1.327889270243
13	386	191	1.3373189071394
13	387	192	1.3343988370454
13	388	193	1.3551276318483
13	389	194	1.361686482285
13	390	195	1.3369594124702
13	391	196	1.3735987133987
13	392	197	1.3796890949986
13	393	198	1.347715433286
13	394	199	1.3440203099324
13	395	200	1.3568867408483
4	4	3	2334.0525058916
4	5	4	2334.0525058916
4	6	5	2333.6929094656
4	7	6	2333.2747875563
4	8	7	2332.8566892883
4	9	8	2332.4389943161
4	10	9	2332.0220469793
4	11	10	2331.6039372319
4	12	11	2331.1867879253
4	13	12	2330.7674879709
4	14	13	2330.3473004489
4	15	14	2329.9332434698
4	17	15	2329.5156939668
4	36	16	2329.0955023633
4	38	17	2328.6752185559
4	77	18	2328.2562452053
4	82	19	2327.8385663203
4	215	20	2327.4182511281
4	216	21	2327.0020938843
4	217	22	2326.5826859209
4	218	23	2326.1623734083
4	219	24	2325.7445771134
4	220	25	2325.3225451502
4	221	26	2324.9054095661
4	222	27	2324.487202606
4	223	28	2324.0686783026
4	224	29	2323.6504636884
4	225	30	2323.2302955077
4	226	31	2322.8118406405
4	227	32	2322.3920292365
4	228	33	2321.9732301172
4	229	34	2321.5573252513
4	230	35	2321.1355524642
4	231	36	2320.715376584
4	232	37	2320.299373667
4	233	38	2319.8826283108
4	234	39	2319.4648724096
4	235	40	2319.0477289274
4	236	41	2318.6301357977
4	237	42	2318.2095274426
4	238	43	2317.7927501725
4	239	44	2317.368846296
4	240	45	2316.9467847272
4	241	46	2316.5281798393
4	242	47	2316.1068502746
4	243	48	2315.6902617162
4	244	49	2315.2734080796
4	245	50	2314.8530729143
4	246	51	2314.4372369944
4	247	52	2314.0198721763
4	248	53	2313.6005021822
4	249	54	2313.183028844
4	250	55	2312.7682437826
4	251	56	2312.3503439798
4	252	57	2311.932623506
4	253	58	2311.5155979887
4	254	59	2311.0989506019
4	255	60	2310.6775846922
4	256	61	2310.2582833483
4	257	62	2309.8357413989
4	258	63	2309.422007717
4	259	64	2309.003171387
4	260	65	2308.584472462
4	261	66	2308.1665031175
4	262	67	2307.7474785172
4	263	68	2307.3284674868
4	264	69	2306.9125376697
4	265	70	2306.4912271969
4	266	71	2306.0750923905
4	267	72	2305.6583220844
4	268	73	2305.2414637197
4	269	74	2304.8221494942
4	270	75	2304.4005121784
4	271	76	2303.9843297728
4	272	77	2303.5670568568
4	273	78	2303.4476594263
4	274	79	2303.4476594263
4	275	80	2303.4476594263
4	276	81	2303.4476594263
4	277	82	2303.4476594263
4	278	83	2303.4476594263
4	279	84	2303.2188109942
4	280	85	2302.8145018554
4	281	86	2302.4131931409
4	282	87	2302.0121231089
4	283	88	2301.6085617221
4	284	89	2301.2086649578
4	285	90	2300.8108235798
4	286	91	2300.4070404302
4	287	92	2300.0029309436
4	288	93	2299.6018405442
4	289	94	2299.1950849761
4	290	95	2298.7933532666
4	291	96	2298.3918030236
4	292	97	2297.987253528
4	293	98	2297.5853765625
4	294	99	2297.1815453308
4	295	100	2296.7818250295
4	296	101	2296.3844273274
4	297	102	2295.981317777
4	298	103	2295.5817096821
4	299	104	2295.1813682282
4	300	105	2294.7924944104
4	301	106	2294.4021821163
4	302	107	2294.0151627474
4	303	108	2293.6301080647
4	304	109	2293.2427166473
4	305	110	2292.8522531365
4	306	111	2292.4671570657
4	307	112	2292.0764083378
4	308	113	2291.6873885821
4	309	114	2291.297876509
4	310	115	2290.9120659752
4	311	116	2290.5243596323
4	312	117	2290.1335217195
4	313	118	2289.7454179387
4	314	119	2289.3567567394
4	315	120	2288.969953533
4	316	121	2288.5830831942
4	317	122	2288.1937829651
4	318	123	2287.8058109591
4	319	124	2287.4178841424
4	320	125	2287.0326897874
4	321	126	2286.6466833113
4	322	127	2286.2589356817
4	323	128	2285.8724565935
4	324	129	2285.4842928457
4	325	130	2285.0965436399
4	326	131	2284.711370422
4	327	132	2284.3262073681
4	328	133	2283.9367802721
4	329	134	2283.549571502
4	330	135	2283.1625682731
4	331	136	2282.7759388749
4	332	137	2282.3876554394
4	333	138	2281.9998932605
4	334	139	2281.6133166403
4	335	140	2281.2222735601
4	336	141	2280.8303377738
4	337	142	2280.4430471049
4	338	143	2280.0540782129
4	339	144	2279.6654095227
4	340	145	2279.2729466394
4	341	146	2278.8836813614
4	342	147	2278.4963667645
4	343	148	2278.1595294861
4	344	149	2277.8278427961
4	345	150	2277.4964502441
4	346	151	2277.1659782647
4	347	152	2276.8335373988
4	348	153	2276.5006298561
4	349	154	2276.1696778637
4	350	155	2275.8410383625
4	351	156	2275.5372978127
4	352	157	2275.3898446547
4	353	158	2275.2412021682
4	354	159	2275.0919475231
4	355	160	2274.9438971832
4	356	161	2274.7960480658
4	357	162	2274.6481708941
4	358	163	2274.8092368909
4	359	164	2275.0433107515
4	360	165	2275.2779637765
4	361	166	2275.5094826632
4	362	167	2276.1871714701
4	363	168	2277.1755745357
4	364	169	2278.1650560376
4	365	170	2279.331315046
4	366	171	2280.6269299574
4	367	172	2281.9117737641
4	368	173	2283.1956956946
4	369	174	2284.479606575
4	370	175	2285.7641208062
4	371	176	2287.0412253082
4	372	177	2288.3263356375
4	373	178	2289.6130996958
4	374	179	2290.9000025406
4	375	180	2292.1885744302
4	376	181	2293.4806138492
4	377	182	2294.7657129092
4	378	183	2296.0585063775
4	379	184	2297.3493507407
4	380	185	2298.6324228177
4	381	186	2299.9131518318
4	382	187	2301.2091186237
4	383	188	2302.4960898731
4	384	189	2303.777584545
4	385	190	2305.0625881474
4	386	191	2306.3558451763
4	387	192	2307.6406004784
4	388	193	2308.9276911127
4	389	194	2310.2124660077
4	390	195	2311.5014661378
4	391	196	2312.7828607887
4	392	197	2314.0650723514
4	393	198	2315.3675890502
4	394	199	2316.6616095343
4	395	200	2317.9570187439
3	4	3	2045.3088540848
3	5	4	2045.3088540848
3	6	5	2046.4111449059
3	7	6	2047.6928371293
3	8	7	2048.9744568835
3	9	8	2050.2548403927
3	10	9	2051.5329321339
3	11	10	2052.8145870766
3	12	11	2054.0932979271
3	13	12	2055.3786012772
3	14	13	2056.6666253371
3	15	14	2057.9358571049
3	17	15	2059.2157946995
3	36	16	2060.5038312709
3	38	17	2061.7921504799
3	77	18	2063.0764526734
3	82	19	2064.3567868696
3	215	20	2065.6452022844
3	216	21	2066.9208721098
3	217	22	2068.2065065457
3	218	23	2069.4949137465
3	219	24	2070.775607846
3	220	25	2072.0692857738
3	221	26	2073.3479545597
3	222	27	2074.629907494
3	223	28	2075.912833198
3	224	29	2077.1948095947
3	225	30	2078.4827743668
3	226	31	2079.7654872245
3	227	32	2081.0523583494
3	228	33	2082.3361264618
3	229	34	2083.6110226592
3	230	35	2084.9039061201
3	231	36	2086.1918944942
3	232	37	2087.4670912529
3	233	38	2088.7445638519
3	234	39	2090.0251341304
3	235	40	2091.3038271267
3	236	41	2092.5838984526
3	237	42	2093.8745429492
3	238	43	2095.1551858336
3	239	44	2096.4577268359
3	240	45	2097.754606929
3	241	46	2099.0428357375
3	242	47	2100.3413853953
3	243	48	2101.6253231371
3	244	49	2102.9100778577
3	245	50	2104.205562748
3	246	51	2105.4871808367
3	247	52	2106.7735110331
3	248	53	2108.0660212386
3	249	54	2109.3526858971
3	250	55	2110.6310652101
3	251	56	2111.9190442443
3	252	57	2113.2064705813
3	253	58	2114.4917550431
3	254	59	2115.7758740958
3	255	60	2117.0745357696
3	256	61	2118.3668343934
3	257	62	2119.6691206551
3	258	63	2120.9442595867
3	259	64	2122.2351250243
3	260	65	2123.5255669757
3	261	66	2124.8137603397
3	262	67	2126.1052060316
3	263	68	2127.3966099007
3	264	69	2128.6785173834
3	265	70	2129.9770081994
3	266	71	2131.2595474646
3	267	72	2132.5440453581
3	268	73	2133.8288146506
3	269	74	2135.1211529758
3	270	75	2136.420651131
3	271	76	2137.7033370983
3	272	77	2138.9893840498
3	273	78	2139.357370314
3	274	79	2139.357370314
3	275	80	2139.357370314
3	276	81	2139.357370314
3	277	82	2139.357370314
3	278	83	2139.357370314
3	279	84	2140.0773537201
3	280	85	2141.3767751314
3	281	86	2142.6665533881
3	282	87	2143.9555645357
3	283	88	2145.252582724
3	284	89	2146.5378230709
3	285	90	2147.8164575496
3	286	91	2149.1141884683
3	287	92	2150.4129682111
3	288	93	2151.7020448182
3	289	94	2153.0093288829
3	290	95	2154.3004666159
3	291	96	2155.5910211281
3	292	97	2156.8912150294
3	293	98	2158.1828196052
3	294	99	2159.4807050562
3	295	100	2160.7653782635
3	296	101	2162.0425867986
3	297	102	2163.3381528162
3	298	103	2164.6224653997
3	299	104	2165.9230520259
3	300	105	2167.2226849515
3	301	106	2168.5271253263
3	302	107	2169.8205606043
3	303	108	2171.1074298169
3	304	109	2172.4021084969
3	305	110	2173.7070542444
3	306	111	2174.9940617781
3	307	112	2176.2999607332
3	308	113	2177.6000813896
3	309	114	2178.9018473915
3	310	115	2180.191242691
3	311	116	2181.4869738655
3	312	117	2182.7931708805
3	313	118	2184.0902303094
3	314	119	2185.3891526548
3	315	120	2186.6818655085
3	316	121	2187.9748027214
3	317	122	2189.2758607317
3	318	123	2190.5724797637
3	319	124	2191.8689477713
3	320	125	2193.1562837746
3	321	126	2194.4463339215
3	322	127	2195.7422030781
3	323	128	2197.0338327147
3	324	129	2198.331092556
3	325	130	2199.6269669801
3	326	131	2200.9142323426
3	327	132	2202.2014637364
3	328	133	2203.5029457413
3	329	134	2204.7970140064
3	330	135	2206.0903953439
3	331	136	2207.3825273229
3	332	137	2208.6801871657
3	333	138	2209.9761049464
3	334	139	2211.2680605394
3	335	140	2212.5749432325
3	336	141	2213.8848093878
3	337	142	2215.179151362
3	338	143	2216.4791020295
3	339	144	2217.7780494098
3	340	145	2219.0896771458
3	341	146	2220.390618348
3	342	147	2221.6850402907
3	343	148	2222.9908260843
3	344	149	2224.3049480917
3	345	150	2225.6179047423
3	346	151	2226.9272141415
3	347	152	2228.2443241467
3	348	153	2229.5632830962
3	349	154	2230.874494277
3	350	155	2232.1765435118
3	351	156	2233.4962517865
3	352	157	2234.8358794139
3	353	158	2236.1863122165
3	354	159	2237.5423065451
3	355	160	2238.8873596335
3	356	161	2240.2305845935
3	357	162	2241.5740644304
3	358	163	2242.908076833
3	359	164	2244.2415885239
3	360	165	2245.5783996964
3	361	166	2246.8973557782
3	362	167	2248.0059449365
3	363	168	2248.9237477831
3	364	169	2249.8425520349
3	365	170	2250.4551989361
3	366	171	2250.8783823224
3	367	172	2251.2980475703
3	368	173	2251.7174117082
3	369	174	2252.1367722368
3	370	175	2252.5563298363
3	371	176	2252.9734672149
3	372	177	2253.3932195165
3	373	178	2253.8135119712
3	374	179	2254.2338497575
3	375	180	2254.6547326996
3	376	181	2255.076748232
3	377	182	2255.4964968527
3	378	183	2255.9187586782
3	379	184	2256.3403838726
3	380	185	2256.759470425
3	381	186	2257.1777916687
3	382	187	2257.6010899889
3	383	188	2258.021450118
3	384	189	2258.4400214466
3	385	190	2258.8597388882
3	386	191	2259.2821521253
3	387	192	2259.7017884652
3	388	193	2260.1221875887
3	389	194	2260.5418303282
3	390	195	2260.9628531454
3	391	196	2261.3813918044
3	392	197	2261.8001972892
3	393	198	2262.2256349887
3	394	199	2262.6482975913
3	395	200	2263.0714137898
20	6	5	1.1663376222869
20	7	6	1.1943023278823
20	8	7	1.1613190782058
20	9	8	1.1694490909944
20	10	9	1.1906754257225
20	11	10	1.1741808998928
20	12	11	1.1598320591771
20	13	12	1.1896775967281
20	14	13	1.1608882769214
20	15	14	1.1751273454601
20	17	15	1.1859338095209
20	36	16	1.1708005506353
20	38	17	1.1878876447412
20	77	18	1.1704054867872
20	82	19	1.1735681247072
20	215	20	1.18068003003
20	216	21	1.1645440270088
20	217	22	1.1862740680765
20	218	23	1.1745643315882
20	219	24	1.1851236735904
20	220	25	1.1632856889854
20	221	26	1.1649516442743
20	222	27	1.1845122298898
20	223	28	1.1879062134237
20	224	29	1.1558803469162
20	225	30	1.179142911211
20	226	31	1.1709507446382
20	227	32	1.1760562125809
20	228	33	1.1766256482144
20	229	34	1.1933375948462
20	230	35	1.1686767762364
20	231	36	1.1758357733898
20	232	37	1.1800796090679
20	233	38	1.1590341345101
20	234	39	1.1813443644161
20	235	40	1.1728023452788
20	236	41	1.1882896687287
20	237	42	1.1663165475267
20	238	43	1.1686890656064
20	239	44	1.1897129242877
20	240	45	1.1805019123806
20	241	46	1.1719617679564
20	242	47	1.1583645526429
20	243	48	1.1997631379284
20	244	49	1.1597938069929
20	245	50	1.1851007894519
20	246	51	1.1778877289185
20	247	52	1.1624475684644
20	248	53	1.1756074927385
20	249	54	1.1716636295404
20	250	55	1.1743369552886
20	251	56	1.1893043988028
20	252	57	1.1643898841506
20	253	58	1.1863144689985
20	254	59	1.1777267701826
20	255	60	1.1704297722314
20	256	61	1.1806602341336
20	257	62	1.1675496247642
20	258	63	1.1780660259845
20	259	64	1.1754796295041
20	260	65	1.165185875747
20	261	66	1.1902047137815
20	262	67	1.1695940247084
20	263	68	1.1646180240515
20	264	69	1.1784124465241
20	265	70	1.1794835605013
20	266	71	1.1711617820093
20	267	72	1.1763610046979
20	268	73	1.1750422206668
20	269	74	1.1704693559409
20	270	75	1.1754419393172
20	271	76	1.195269874978
20	272	77	1.1749139383218
20	273	78	1.1755541219305
20	274	79	1.1803296975657
20	275	80	1.1531724149551
20	276	81	1.1866220326343
20	277	82	1.1874103568613
20	278	83	1.1572486279249
20	279	84	1.1940224396411
20	280	85	1.1764021636006
20	281	86	1.1643780915728
20	282	87	1.1855055173138
20	283	88	1.1663616114741
20	284	89	1.1897333092965
20	285	90	1.1749889531141
20	286	91	1.1643802699553
20	287	92	1.1908874067127
20	288	93	1.1525932403783
20	289	94	1.1739182753128
20	290	95	1.1831312659516
20	291	96	1.1791295525132
20	292	97	1.1627902979605
20	293	98	1.1814366018112
20	294	99	1.1929726232979
20	295	100	1.1631504595356
20	296	101	1.1868729565037
20	297	102	1.1766179710863
20	298	103	1.1769277582591
20	299	104	1.1579313695608
20	300	105	1.1822864201959
20	301	106	1.1709294533124
20	302	107	1.1791346670626
20	303	108	1.1852335008446
20	304	109	1.1670548987559
20	305	110	1.171640493614
20	306	111	1.1869200595086
20	307	112	1.1583979497547
20	308	113	1.1960842620593
20	309	114	1.1691592024827
20	310	115	1.1676014730291
20	311	116	1.1705684784674
20	312	117	1.1733037596956
20	313	118	1.1893628281138
20	314	119	1.1611095935417
20	315	120	1.1749358691771
20	316	121	1.1918049411666
20	317	122	1.1597596637556
20	318	123	1.1849634610436
20	319	124	1.174906058033
20	320	125	1.1768456638895
20	321	126	1.1720144925656
20	322	127	1.1652248974118
20	323	128	1.1747000983502
20	324	129	1.180427480809
20	325	130	1.1774593967976
20	326	131	1.1907337991969
20	327	132	1.1694797031715
20	328	133	0.973
20	329	134	0.973
20	330	135	0.973
20	331	136	1.1157180448358
20	332	137	0.973
20	333	138	0.973
20	334	139	0.973
20	335	140	0.973
20	336	141	0.973
20	337	142	0.973
20	338	143	0.973
20	339	144	0.973
20	340	145	0.973
20	341	146	0.973
20	342	147	0.973
20	343	148	0.973
20	344	149	1.6421394753086
20	345	150	1.1688730143249
20	346	151	1.1646901581217
20	347	152	1.1806842557854
20	348	153	1.1868297815343
20	349	154	1.1780061379936
20	350	155	1.1626745046332
20	351	156	1.191050943852
20	352	157	1.1608622827426
20	353	158	1.1890730913881
20	354	159	1.1620068955744
20	355	160	1.1847684262458
20	356	161	1.1785228450708
20	357	162	1.1720421001076
20	358	163	1.1821854627636
20	359	164	1.1778315749867
20	360	165	1.1650151300823
20	361	166	1.1725661738423
20	362	167	1.1697164254491
20	363	168	1.1778745467451
20	364	169	1.1709385118834
20	365	170	1.1952713133281
20	366	171	1.1760002414724
20	367	172	1.1739351812279
20	368	173	1.1726492148103
20	369	174	1.1683733098432
20	370	175	1.1897625971035
20	371	176	1.1695180571806
20	372	177	1.1657239143684
20	373	178	1.174011414326
20	374	179	1.1889427993551
20	375	180	1.1624862330872
20	376	181	1.1881872395789
20	377	182	1.1746905369881
20	378	183	1.1622644921314
20	379	184	1.1813916357512
20	380	185	1.1797854442934
20	381	186	1.1708865470018
20	382	187	1.175110816096
20	383	188	1.1864790292814
20	384	189	1.1617554940142
20	385	190	1.1895324107139
20	386	191	1.1703981214333
20	387	192	1.1780558362879
20	388	193	1.1693302263792
20	389	194	1.1776734638465
20	390	195	1.1892103268025
20	391	196	1.1591321685123
20	392	197	1.1845465748628
20	393	198	1.1630375195035
20	394	199	1.1824010681753
20	395	200	1.1662878523387
19	6	5	-0.026080056106568
19	7	6	0.051011673559616
19	8	7	-0.042646741591549
19	9	8	-0.015439692279971
19	10	9	0.042862183828321
19	11	10	-0.0061021662582386
19	12	11	-0.044513595930766
19	13	12	0.041470758555483
19	14	13	-0.041229589357196
19	15	14	0.0029696752608288
19	17	15	0.031278814858524
19	36	16	-0.013154838686912
19	38	17	0.033682737412164
19	77	18	-0.01671671351586
19	82	19	-0.0061837392988513
19	215	20	0.013454797024476
19	216	21	-0.031542263766621
19	217	22	0.030582224895221
19	218	23	-0.0043262672908086
19	219	24	0.023859657376306
19	220	25	-0.037061327489533
19	221	26	-0.02829435274988
19	222	27	0.028205378475832
19	223	28	0.032904956363685
19	224	29	-0.057205432870736
19	225	30	0.013434978851971
19	226	31	-0.010456597891688
19	227	32	0.0047507216610636
19	228	33	0.0056431964751229
19	229	34	0.048380349277674
19	230	35	-0.022472477139672
19	231	36	-0.00061462990642114
19	232	37	0.010634400112192
19	233	38	-0.047537738589906
19	234	39	0.019040099561809
19	235	40	-0.0063627045245893
19	236	41	0.035333439850042
19	237	42	-0.027473666381815
19	238	43	-0.017740624850073
19	239	44	0.040466160539331
19	240	45	0.010883945263534
19	241	46	-0.012989312171056
19	242	47	-0.048753067094367
19	243	48	0.067598401284259
19	244	49	-0.046718973802247
19	245	50	0.027000159251555
19	246	51	0.004441551799472
19	247	52	-0.03773237093507
19	248	53	0.0027703439344704
19	249	54	-0.0082702596814164
19	250	55	6.8043639960935e-005
19	251	56	0.039600189823735
19	252	57	-0.03197189240988
19	253	58	0.030742820413757
19	254	59	0.0040643632463697
19	255	60	-0.015860778981328
19	256	61	0.013338206982654
19	257	62	-0.023356118682487
19	258	63	0.0078536140952361
19	259	64	-6.7386184430918e-005
19	260	65	-0.028026094417631
19	261	66	0.042474928260263
19	262	67	-0.017675977416931
19	263	68	-0.029226414351595
19	264	69	0.012144245702075
19	265	70	0.013324051623284
19	266	71	-0.010793042391823
19	267	72	0.0046437930884875
19	268	73	0.0004863744025998
19	269	74	-0.011970235597498
19	270	75	0.0030846508646694
19	271	76	0.054388278206009
19	272	77	-0.005741114323933
19	273	78	-0.0033355262227512
19	274	79	0.0095814878295641
19	275	80	-0.065246848324831
19	276	81	0.033773052548188
19	277	82	0.030873614078802
19	278	83	-0.053677966465734
19	279	84	0.051135969244772
19	280	85	-0.0015003155729372
19	281	86	-0.033513273422917
19	282	87	0.026928533107922
19	283	88	-0.027353791293637
19	284	89	0.03785126941188
19	285	90	-0.0055156688581015
19	286	91	-0.033328846620861
19	287	92	0.040939278373521
19	288	93	-0.06702368888202
19	289	94	-2.5096103652533e-005
19	290	95	0.024679398920853
19	291	96	0.010652256508668
19	292	97	-0.035024320208726
19	293	98	0.020150752405041
19	294	99	0.047084973678769
19	295	100	-0.037587785207304
19	296	101	0.030106909398455
19	297	102	-0.00061895890717589
19	298	103	0.00027238224801174
19	299	104	-0.051221420128261
19	300	105	0.021235040540988
19	301	106	-0.011972439436552
19	302	107	0.011608854741401
19	303	108	0.025963007679416
19	304	109	-0.025567945752603
19	305	110	-0.010048919292684
19	306	111	0.031712610669072
19	307	112	-0.049058924503495
19	308	113	0.057772639217243
19	309	114	-0.020440550401367
19	310	115	-0.022247835085081
19	311	116	-0.011419923733532
19	312	117	-0.0024907654086646
19	313	118	0.040419980683105
19	314	119	-0.040668062736384
19	315	120	0.0023053877036241
19	316	121	0.046383447867508
19	317	122	-0.045300077731049
19	318	123	0.02852457307098
19	319	124	-0.0019621682521473
19	320	125	0.0034565933229818
19	321	126	-0.0099070660103786
19	322	127	-0.027272998187174
19	323	128	0.0021698818050531
19	324	129	0.017273622005531
19	325	130	0.0069893346193972
19	326	131	0.040571974661563
19	327	132	-0.020331684192772
19	328	133	-0.30578166609758
19	329	134	-0.54632607191594
19	330	135	-0.30264807876672
19	331	136	-0.052034810709833
19	332	137	-0.1601604391031
19	333	138	0
19	334	139	0
19	335	140	0
19	336	141	0
19	337	142	0
19	338	143	0
19	339	144	0
19	340	145	0
19	341	146	0
19	342	147	0
19	343	148	0
19	344	149	1.3888888888889
19	345	150	-0.022145866274109
19	346	151	-0.030963959806185
19	347	152	0.016089289226026
19	348	153	0.029829759150743
19	349	154	0.0029005644157425
19	350	155	-0.038491317924733
19	351	156	0.041468956802014
19	352	157	-0.043802790718877
19	353	158	0.036766985722352
19	354	159	-0.039890971222323
19	355	160	0.02610932607139
19	356	161	0.0062019761955727
19	357	162	-0.011752936762706
19	358	163	0.016512494039489
19	359	164	0.0029586730427884
19	360	165	-0.031647016504495
19	361	166	-0.0073583476639922
19	362	167	-0.014183910211108
19	363	168	0.0097580813841582
19	364	169	-0.010287466494548
19	365	170	0.055110966738236
19	366	171	-0.0023992351553817
19	367	172	-0.0075446782446105
19	368	173	-0.010028173645777
[...]
29	334	139	0.973
29	335	140	0.973
29	336	141	0.973
29	337	142	0.973
29	338	143	0.973
29	339	144	0.973
29	340	145	0.973
29	341	146	0.973
29	342	147	0.973
29	343	148	0.973
29	344	149	1.1917713916965
29	345	150	1.2909036753973
29	346	151	1.2319190295505
29	347	152	1.1375965713105
29	348	153	1.2982001880457
29	349	154	1.1522322574353
29	350	155	1.1592618609106
29	351	156	1.1866574178926
29	352	157	1.1800738440427
29	353	158	1.1590081324152
29	354	159	1.1906312051322
29	355	160	1.1811206697645
29	356	161	1.1609523474391
29	357	162	1.186121186877
29	358	163	1.1763611697412
29	359	164	1.1620455113187
29	360	165	1.1741145705142
29	361	166	1.1970543493738
29	362	167	1.1542651486783
29	363	168	1.1798203590177
29	364	169	1.1751251536184
29	365	170	1.1839173081362
29	366	171	1.1706727453564
29	367	172	1.1704207486457
29	368	173	1.1872340127167
29	369	174	1.1638178221735
29	370	175	1.1924955726131
29	371	176	1.1558166607067
29	372	177	1.1748791167249
29	373	178	1.1854965157565
29	374	179	1.1689039606099
29	375	180	1.1902129031382
29	376	181	1.1752673706731
29	377	182	1.1669873273448
29	378	183	1.170070902343
29	379	184	1.1776800481041
29	380	185	1.1748038291682
29	381	186	1.1899714905991
29	382	187	1.1727091873983
29	383	188	1.1633094661537
29	384	189	1.181197964308
29	385	190	1.1895860116386
29	386	191	1.1690665583006
29	387	192	1.1729838967395
29	388	193	1.1610404825158
29	389	194	1.1907066800086
29	390	195	1.1675488728579
29	391	196	1.1926219883708
29	392	197	1.1579526904652
29	393	198	1.1883921288193
29	394	199	1.1735268528249
29	395	200	1.1584475959949
28	257	62	1.9597892458551
28	258	63	1.6742399983085
28	259	64	1.9798857197445
28	260	65	1.9660808566352
28	261	66	1.0156227521764
28	262	67	0.028580193596426
28	263	68	-2.0109620971473
28	264	69	-2.4973178676657
28	265	70	-1.9973392744812
28	266	71	-1.6291704439595
28	267	72	-1.0246602023744
28	268	73	-0.55434465644766
28	269	74	-0.30472177311033
28	270	75	-0.13202831457481
28	271	76	-0.05758583853152
28	272	77	-0.0085937372117642
28	273	78	-0.023184162680794
28	274	79	0.01979024368783
28	275	80	-0.0026457327049447
28	276	81	0.0037175188648499
28	277	82	-0.049314598496858
28	278	83	0.024074835632584
28	279	84	-0.00065560540318987
28	280	85	-0.012005581191506
28	281	86	0.029708947791081
28	282	87	-0.01529915134285
28	283	88	0.03444701201396
28	284	89	-0.0058628933869951
28	285	90	-0.012384655086552
28	286	91	-0.0052030818734041
28	287	92	-0.033614895127273
28	288	93	0.015393382255328
28	289	94	0.0048001070271233
28	290	95	0.015266749258929
28	291	96	-0.026383451116537
28	292	97	-0.013400911412873
28	293	98	0.022268373292796
28	294	99	-0.01330900710008
28	295	100	0.014349293991299
28	296	101	-0.016521620313318
28	297	102	-0.018863355606934
28	298	103	0.042128338289976
28	299	104	-0.023809150007048
28	300	105	0.013947479142951
28	301	106	-0.027596638591357
28	302	107	0.003538663928615
28	303	108	0.019744923066345
28	304	109	0.017997813124023
28	305	110	-0.047271247456451
28	306	111	0.028198520083044
28	307	112	0.047652112914386
28	308	113	-0.086322222175773
28	309	114	0.022660619098825
28	310	115	0.0036335830197678
28	311	116	0.0040724667164664
28	312	117	0.0041673636440702
28	313	118	-0.0044131210612217
28	314	119	0.03984315567595
28	315	120	-0.0017404583363694
28	316	121	0.0013568913426476
28	317	122	-0.0027826524934558
28	318	123	-0.0027698969323517
28	319	124	-0.045348428824304
28	320	125	0.018422490129158
28	321	126	0.020843503584552
28	322	127	-0.0090646470247724
28	323	128	0.036580073764891
28	324	129	-0.0057747425244417
28	325	130	-0.030267129431414
28	326	131	0.006904356582466
28	327	132	-0.0086531918846084
28	328	133	-0.052722145826138
28	329	134	-0.37135683401337
28	330	135	-0.34802534385182
28	331	136	-0.14733857424684
28	332	137	-0.43411816366017
28	333	138	0
28	334	139	0
28	335	140	0
28	336	141	0
28	337	142	0
28	338	143	0
28	339	144	0
28	340	145	0
28	341	146	0
28	342	147	0
28	343	148	0
28	344	149	0.49090909090913
28	345	150	0.53273315256803
28	346	151	0.20949567733012
28	347	152	-0.099636459025979
28	348	153	0.3319085844732
28	349	154	-0.074884575523064
28	350	155	-0.048540130286993
28	351	156	0.030813827286377
28	352	157	0.0094556575865412
28	353	158	-0.048393410096494
28	354	159	0.042237066106882
28	355	160	0.01173413480562
28	356	161	-0.043581119268535
28	357	162	0.029099930188166
28	358	163	-0.00033869727614522
28	359	164	-0.038967254605268
28	360	165	-0.0012410340181666
28	361	166	0.05868513164425
28	362	167	-0.062625004152496
28	363	168	0.014760905312641
28	364	169	0.0002269901640346
28	365	170	0.023437647189818
28	366	171	-0.014734965213577
28	367	172	-0.013609892476281
28	368	173	0.032746292577316
28	369	174	-0.033924230454096
28	370	175	0.046400112547645
28	371	176	-0.057537188189379
28	372	177	0.0018075912251654
28	373	178	0.029771448766583
28	374	179	-0.018425510129862
28	375	180	0.040277119245743
28	376	181	-0.0040737696777726
28	377	182	-0.025739900150401
28	378	183	-0.014276526353689
28	379	184	0.0080840165342178
28	380	185	-0.00069174061392019
28	381	186	0.039126342158343
28	382	187	-0.011143261740623
28	383	188	-0.035287748005732
28	384	189	0.017406609726616
28	385	190	0.036650799356065
28	386	191	-0.021769990555283
28	387	192	-0.008664836823711
28	388	193	-0.04031232003212
28	389	194	0.044635208148321
28	390	195	-0.022810978602554
28	391	196	0.04619987363331
28	392	197	-0.051864547309421
28	393	198	0.036236835526766
28	394	199	-0.0076435919819129
28	395	200	-0.04807848209538
27	256	61	2.9750399124502
27	257	62	4.9348291583052
27	258	63	6.6090691566137
27	259	64	8.5889548763582
27	260	65	10.555035732993
27	261	66	11.57065848517
27	262	67	11.599238678766
27	263	68	9.588276581619
27	264	69	7.0909587139533
27	265	70	5.0936194394721
27	266	71	3.4644489955126
27	267	72	2.4397887931382
27	268	73	1.8854441366905
27	269	74	1.5807223635802
27	270	75	1.4486940490054
27	271	76	1.3911082104739
27	272	77	1.3825144732621
27	273	78	1.3593303105813
27	274	79	1.3791205542691
27	275	80	1.3764748215642
27	276	81	1.380192340429
27	277	82	1.3308777419322
27	278	83	1.3549525775648
27	279	84	1.3542969721616
27	280	85	1.3422913909701
27	281	86	1.3720003387611
27	282	87	1.3567011874183
27	283	88	1.3911481994323
27	284	89	1.3852853060453
27	285	90	1.3729006509587
27	286	91	1.3676975690853
27	287	92	1.334082673958
27	288	93	1.3494760562134
27	289	94	1.3542761632405
27	290	95	1.3695429124994
27	291	96	1.3431594613829
27	292	97	1.32975854997
27	293	98	1.3520269232628
27	294	99	1.3387179161627
27	295	100	1.353067210154
27	296	101	1.3365455898407
27	297	102	1.3176822342338
27	298	103	1.3598105725237
27	299	104	1.3360014225167
27	300	105	1.3499489016596
27	301	106	1.3223522630683
27	302	107	1.3258909269969
27	303	108	1.3456358500632
27	304	109	1.3636336631873
27	305	110	1.3163624157308
27	306	111	1.3445609358139
27	307	112	1.3922130487282
27	308	113	1.3058908265525
27	309	114	1.3285514456513
27	310	115	1.3321850286711
27	311	116	1.3362574953875
27	312	117	1.3404248590316
27	313	118	1.3360117379704
27	314	119	1.3758548936463
27	315	120	1.37411443531
27	316	121	1.3754713266526
27	317	122	1.3726886741592
27	318	123	1.3699187772268
27	319	124	1.3245703484025
27	320	125	1.3429928385317
27	321	126	1.3638363421162
27	322	127	1.3547716950914
27	323	128	1.3913517688563
27	324	129	1.3855770263319
27	325	130	1.3553098969005
27	326	131	1.3622142534829
27	327	132	1.3535610615983
27	328	133	1.3008389157722
27	329	134	0.92948208175882
27	330	135	0.581456737907
27	331	136	0.43411816366017
27	332	137	0
27	333	138	0
27	334	139	0
27	335	140	0
27	336	141	0
27	337	142	0
27	338	143	0
27	339	144	0
27	340	145	0
27	341	146	0
27	342	147	0
27	343	148	0
27	344	149	0.49090909090913
27	345	150	1.0236422434772
27	346	151	1.2331379208073
27	347	152	1.1335014617813
27	348	153	1.4654100462545
27	349	154	1.3905254707314
27	350	155	1.3419853404444
27	351	156	1.3727991677308
27	352	157	1.3822548253174
27	353	158	1.3338614152209
27	354	159	1.3760984813277
27	355	160	1.3878326161334
27	356	161	1.3442514968648
27	357	162	1.373351427053
27	358	163	1.3730127297768
27	359	164	1.3340454751716
27	360	165	1.3328044411534
27	361	166	1.3914895727977
27	362	167	1.3288645686452
27	363	168	1.3436254739578
27	364	169	1.3438524641218
27	365	170	1.3672901113117
27	366	171	1.3525551460981
27	367	172	1.3389452536218
27	368	173	1.3716915461991
27	369	174	1.337767315745
27	370	175	1.3841674282927
27	371	176	1.3266302401033
27	372	177	1.3284378313285
27	373	178	1.358209280095
27	374	179	1.3397837699652
27	375	180	1.3800608892109
27	376	181	1.3759871195331
27	377	182	1.3502472193827
27	378	183	1.3359706930291
27	379	184	1.3440547095633
27	380	185	1.3433629689494
27	381	186	1.3824893111077
27	382	187	1.3713460493671
27	383	188	1.3360583013613
27	384	189	1.353464911088
27	385	190	1.390115710444
27	386	191	1.3683457198887
27	387	192	1.359680883065
27	388	193	1.3193685630329
27	389	194	1.3640037711812
27	390	195	1.3411927925787
27	391	196	1.387392666212
27	392	197	1.3355281189026
27	393	198	1.3717649544293
27	394	199	1.3641213624474
27	395	200	1.316042880352
26	255	60	2284.2902135224
26	256	61	2284.2902135224
26	257	62	2284.9016080035
26	258	63	2286.1156946318
26	259	64	2287.8830557365
26	260	65	2290.2001705593
26	261	66	2293.1059706552
26	262	67	2296.5198850809
26	263	68	2300.0085664605
26	264	69	2303.2619766737
26	265	70	2305.7307767922
26	266	71	2307.5300722022
26	267	72	2308.7853392177
26	268	73	2309.6519377484
26	269	74	2310.3024335572
26	270	75	2310.8276590818
26	271	76	2311.296103588
26	272	77	2311.7336926105
26	273	78	2312.1622417635
26	274	79	2312.5808856561
26	275	80	2313.0022729658
26	276	81	2313.4183907866
26	277	82	2313.8352798081
26	278	83	2314.2491328806
26	279	84	2314.6613114763
26	280	85	2315.0754252489
26	281	86	2315.4895422855
26	282	87	2315.9034213761
26	283	88	2316.3136768953
26	284	89	2316.729438824
26	285	90	2317.1430550496
26	286	91	2317.5563714963
26	287	92	2317.9684721943
26	288	93	2318.3772880358
26	289	94	2318.7859698146
26	290	95	2319.1919561674
26	291	96	2319.6007538289
26	292	97	2320.0060160553
26	293	98	2320.4094876865
26	294	99	2320.8186328037
26	295	100	2321.2263654346
26	296	101	2321.6345458839
26	297	102	2322.0399775027
26	298	103	2322.4504986924
26	299	104	2322.8598398634
26	300	105	2323.2677944688
26	301	106	2323.680257312
26	302	107	2324.0903579906
26	303	108	2324.4973906619
26	304	109	2324.904380818
26	305	110	2325.3123290092
26	306	111	2325.7205652342
26	307	112	2326.128422718
26	308	113	2326.5323186272
26	309	114	2326.9396042216
26	310	115	2327.3455276513
26	311	116	2327.7543794423
26	312	117	2328.1604445028
26	313	118	2328.566608336
26	314	119	2328.9758168891
26	315	120	2329.3872757095
26	316	121	2329.7927371635
26	317	122	2330.2030151993
26	318	123	2330.6111886673
26	319	124	2331.0237569303
26	320	125	2331.429542231
26	321	126	2331.8392500963
26	322	127	2332.2489929036
26	323	128	2332.6617959388
26	324	129	2333.0715474713
26	325	130	2333.4787517675
26	326	131	2333.8873837334
26	327	132	2334.2942215046
26	328	133	2334.7045345539
26	329	134	2335.1130415697
26	330	135	2335.4469899683
26	331	136	2335.673744222
26	332	137	2335.8163493598
26	333	138	2335.9065296367
26	334	139	2335.9065296367
26	335	140	2335.9065296367
26	336	141	2335.9065296367
26	337	142	2335.9065296367
26	338	143	2335.9065296367
26	339	144	2335.9065296367
26	340	145	2335.9065296367
26	341	146	2335.9065296367
26	342	147	2335.9065296367
26	343	148	2335.9065296367
26	344	149	2335.9065296367
26	345	150	2336.018536137
26	346	151	2336.2694091914
26	347	152	2336.6183011606
26	348	153	2336.9500877906
26	349	154	2337.2467803116
26	350	155	2337.5126381773
26	351	156	2337.7701817659
26	352	157	2338.0272762337
26	353	158	2337.9513548013
26	354	159	2337.7194511463
26	355	160	2337.483313881
26	356	161	2337.0510393844
26	357	162	2336.2160594679
26	358	163	2335.3910226326
26	359	164	2334.4923947057
26	360	165	2333.2891187944
26	361	166	2332.0909371207
26	362	167	2330.8757354379
26	363	168	2329.6319081876
26	364	169	2328.3383917538
26	365	170	2327.0550786711
26	366	171	2325.7575485237
26	367	172	2324.4702008159
26	368	173	2323.1752375333
26	369	174	2321.882504636
26	370	175	2320.5918011835
26	371	176	2319.2982782074
26	372	177	2318.0077405018
26	373	178	2316.721426049
26	374	179	2315.4365864842
26	375	180	2314.1504052705
26	376	181	2312.8605425154
26	377	182	2311.5624290143
26	378	183	2310.2712670599
26	379	184	2308.9847129993
26	380	185	2307.6953721256
26	381	186	2306.4019970007
26	382	187	2305.1054938911
26	383	188	2303.8226095257
26	384	189	2302.5483043794
26	385	190	2301.2518955271
26	386	191	2299.9653329294
26	387	192	2298.6722130147
26	388	193	2297.3884469937
26	389	194	2296.1123133609
26	390	195	2294.8222296724
26	391	196	2293.5424963216
26	392	197	2292.2557230671
26	393	198	2290.97111604
26	394	199	2289.6756862137
26	395	200	2288.389885766
25	255	60	2452.4370093711
25	256	61	2452.4370093711
25	257	62	2450.5354477606
25	258	63	2446.7339608195
25	259	64	2441.1445724985
25	260	65	2433.8165541919
25	261	66	2424.62678246
25	262	67	2413.8300678722
25	263	68	2402.796898189
25	264	69	2392.5077880565
25	265	70	2384.7000556622
25	266	71	2379.0299188221
25	267	72	2375.0759424641
25	268	73	2372.3462363064
25	269	74	2370.2972339687
25	270	75	2368.6428215759
25	271	76	2367.167264201
25	272	77	2365.8008007904
25	273	78	2364.4661954471
25	274	79	2363.1624374717
25	275	80	2361.8501358343
25	276	81	2360.5542446553
25	277	82	2359.2559517712
25	278	83	2357.9671135644
25	279	84	2356.6834900816
25	280	85	2355.3938399917
25	281	86	2354.1041797368
25	282	87	2352.8152605033
25	283	88	2351.5376259442
25	284	89	2350.2428430991
25	285	90	2348.9547424903
25	286	91	2347.6675754653
25	287	92	2346.3756638435
25	288	93	2345.0829719391
25	289	94	2343.790703946
25	290	95	2342.506958997
25	291	96	2341.2143245783
25	292	97	2339.9328693458
25	293	98	2338.6570760462
25	294	99	2337.3633429589
25	295	100	2336.0740762094
25	296	101	2334.7833934403
25	297	102	2333.5014025822
25	298	103	2332.2033182991
25	299	104	2330.9089652818
25	300	105	2329.61899664
25	301	106	2328.3147727716
25	302	107	2327.0180181612
25	303	108	2325.7309647115
25	304	109	2324.4440456968
25	305	110	2323.154097337
25	306	111	2321.8632382028
25	307	112	2320.5735766634
25	308	113	2319.2964417799
25	309	114	2318.0085885776
25	310	115	2316.7250425938
25	311	116	2315.4322370155
25	312	117	2314.1482431896
25	313	118	2312.8639370407
25	314	119	2311.5700033664
25	315	120	2310.2689542579
25	316	121	2308.9868690599
25	317	122	2307.6895536389
25	318	123	2306.3988929448
25	319	124	2305.0943357349
25	320	125	2303.8112265205
25	321	126	2302.5157140013
25	322	127	2301.2200909944
25	323	128	2299.9147914254
25	324	129	2298.6191408286
25	325	130	2297.3315446943
25	326	131	2296.0394342118
25	327	132	2294.7529970441
25	328	133	2293.4555709091
25	329	134	2292.1638555239
25	330	135	2291.1083788557
25	331	136	2290.406989922
25	332	137	2289.9658883157
25	333	138	2289.6869455956
25	334	139	2289.6869455956
25	335	140	2289.6869455956
25	336	141	2289.6869455956
25	337	142	2289.6869455956
25	338	143	2289.6869455956
25	339	144	2289.6869455956
25	340	145	2289.6869455956
25	341	146	2289.6869455956
25	342	147	2289.6869455956
25	343	148	2289.6869455956
25	344	149	2289.6869455956
25	345	150	2289.3404907067
25	346	151	2288.5644982776
25	347	152	2287.4853169069
25	348	153	2286.4590452191
25	349	154	2285.1196879914
25	350	155	2283.7276963359
25	351	156	2282.3792369803
25	352	157	2281.0331291538
25	353	158	2279.6928748894
25	354	159	2278.3668616826
25	355	160	2277.016640909
25	356	161	2275.779054776
25	357	162	2274.6986799986
25	358	163	2273.6311705055
25	359	164	2272.6377820231
25	360	165	2272.0172585711
25	361	166	2271.3993621923
25	362	167	2270.7726886788
25	363	168	2270.2481941923
25	364	169	2269.825863523
25	365	170	2269.4068642287
25	366	171	2268.9832230896
25	367	172	2268.5629064977
25	368	173	2268.1401034351
25	369	174	2267.7180285891
25	370	175	2267.296616353
25	371	176	2266.8742835477
25	372	177	2266.4529254276
25	373	178	2266.0329461916
25	374	179	2265.6134485037
25	375	180	2265.19351277
25	376	181	2264.77237502
25	377	182	2264.348543417
25	378	183	2263.9269814808
25	379	184	2263.5069240133
25	380	185	2263.0859566566
25	381	186	2262.6636721245
25	382	187	2262.2403663113
25	383	188	2261.8215069923
25	384	189	2261.4054487721
25	385	190	2260.9821737337
25	386	191	2260.5621134788
25	387	192	2260.1399122724
25	388	193	2259.7207650945
25	389	194	2259.3041098769
25	390	195	2258.8828999926
25	391	196	2258.4650694739
25	392	197	2258.04494044
25	393	198	2257.6255186752
25	394	199	2257.202563287
25	395	200	2256.7827518726
44	376	181	3.4967338156913
44	377	182	4.6260608017645
44	378	183	5.5580857286104
44	379	184	0.973
44	380	185	0.973
44	381	186	0.973
44	382	187	0.973
44	383	188	2.5083001985451
44	384	189	4.5879334613248
44	385	190	5.9314160751641
44	386	191	6.7023890436622
44	387	192	3.9903856985846
44	388	193	0.973
44	389	194	0.973
44	390	195	0.973
44	391	196	4.4620930975408
44	392	197	4.7240862722445
44	393	198	5.7525655626302
44	394	199	7.1287755857811
44	395	200	0.973
43	376	181	2.0941458354429
43	377	182	2.0725288678403
43	378	183	1.9815314323013
43	379	184	-0.99048743639618
43	380	185	-2.631259638409
43	381	186	-0.31363777534084
43	382	187	-0.78314764124194
43	383	188	1.0333303032094
43	384	189	1.9592158267437
43	385	190	2.0699983174843
43	386	191	1.9375928141875
43	387	192	0.79501782342883
43	388	193	-2.6212070097598
43	389	194	-2.9038949662579
43	390	195	-2.4373680431475
43	391	196	2.2278749777046
43	392	197	1.7826844375906
43	393	198	1.8343126580538
43	394	199	1.9648488161271
43	395	200	-1.1210754589651
42	375	180	2.2090683847124
42	376	181	4.3032142201553
42	377	182	6.3757430879956
42	378	183	8.3572745202969
42	379	184	7.3667870839007
42	380	185	4.7355274454917
42	381	186	4.4218896701509
42	382	187	3.6387420289089
42	383	188	4.6720723321183
42	384	189	6.631288158862
42	385	190	8.7012864763463
42	386	191	10.638879290534
42	387	192	11.433897113963
42	388	193	8.8126901042029
42	389	194	5.9087951379449
42	390	195	3.4714270947974
42	391	196	5.699302072502
42	392	197	7.4819865100927
42	393	198	9.3162991681465
42	394	199	11.281147984274
42	395	200	10.160072525308
41	374	179	2255.8873454545
41	375	180	2255.8873454545
41	376	181	2255.4979906944
41	377	182	2254.4683335472
41	378	183	2252.7952680924
41	379	184	2250.5003584072
41	380	185	2247.9048106193
41	381	186	2246.0849911063
41	382	187	2244.8624786342
41	383	188	2242.0473065233
41	384	189	2242.5335477186
41	385	190	2244.3119376309
41	386	191	2246.7213929976
41	387	192	2249.7336471133
41	388	193	2253.2197259913
41	389	194	2256.728732316
41	390	195	2259.3575637481
41	391	196	2261.6217441285
41	392	197	2264.0779551355
41	393	198	2268.7982605194
41	394	199	2276.6429160032
41	395	200	2286.551855636
40	374	179	2282.9590181818
40	375	180	2282.9590181818
40	376	181	2284.1595286922
40	377	182	2287.3343048961
40	378	183	2292.4929233817
40	379	184	2299.5688949111
40	380	185	2307.5718339238
40	381	186	2313.1829440889
40	382	187	2316.9523575446
40	383	188	2317.5804107038
40	384	189	2313.7418604487
40	385	190	2308.2626858684
40	386	191	2300.8392144989
40	387	192	2291.5585353483
40	388	193	2280.8180140252
40	389	194	2271.2919641163
40	390	195	2264.655887767
40	391	196	2260.7553665687
40	392	197	2256.9496511234
40	393	198	2252.3425228232
40	394	199	2250.1943325884
40	395	200	2252.8136256499

