version 2
run General-0-20200530-11:54:21-11208
attr configname General
attr datetime 20200530-11:54:21
attr experiment General
attr inifile omnetpp.ini
attr iterationvars ""
attr iterationvarsf ""
attr measurement ""
attr network globcomm.simulation.Thesis
attr processid 11208
attr repetition 0
attr replication #0
attr resultdir results
attr runnumber 0
attr seedset 0
param **.debug false
param **.coreDebug false
param *.playgroundSizeX 3000m
param *.playgroundSizeY 3000m
param *.playgroundSizeZ 500m
param *.annotations.draw true
param *.manager.updateInterval 1s
param *.manager.host "\"localhost\""
param *.manager.port 9999
param *.manager.autoShutdown true
param *.manager.launchConfig "xmldoc(\"erlangen.launchd.xml\")"
param Thesis.rsu[0].mobility.x 2000
param Thesis.rsu[0].mobility.y 2000
param Thesis.rsu[0].mobility.z 3
param *.rsu[*].applType "\"globcomm.src.RSU11p\""
param *.rsu[*].appl.headerLength "80 bit"
param *.rsu[*].appl.sendBeacons false
param *.rsu[*].appl.dataOnSch false
param *.rsu[*].appl.beaconInterval 1s
param *.rsu[*].appl.beaconUserPriority 7
param *.rsu[*].appl.dataUserPriority 5
param *.connectionManager.sendDirect true
param *.connectionManager.maxInterfDist 400m
param *.connectionManager.drawMaxIntfDist true
param *.**.nic.mac1609_4.useServiceChannel false
param *.**.nic.mac1609_4.txPower 20mW
param *.**.nic.mac1609_4.bitrate 6Mbps
param *.**.nic.phy80211p.sensitivity -89dBm
param *.**.nic.phy80211p.useThermalNoise true
param *.**.nic.phy80211p.thermalNoise -110dBm
param *.**.nic.phy80211p.decider "xmldoc(\"config.xml\")"
param *.**.nic.phy80211p.analogueModels "xmldoc(\"config.xml\")"
param *.**.nic.phy80211p.usePropagationDelay true
param *.**.nic.phy80211p.antenna "xmldoc(\"antenna.xml\", \"/root/Antenna[@id='monopole']\")"
param *.node[*].applType "\"globcomm.src.MyThesisApp\""
param *.node[*].appl.headerLength "80 bit"
param *.node[*].appl.sendBeacons false
param *.node[*].appl.dataOnSch false
param *.node[*].appl.beaconInterval 1s
param *.node[*].veinsmobilityType.debug true
param *.node[*].veinsmobility.x 0
param *.node[*].veinsmobility.y 0
param *.node[*].veinsmobility.z 1.895
param *.node[*].veinsmobility.accidentCount 0
param *.node[*].veinsmobility.accidentStart 75s
param *.node[*].veinsmobility.accidentDuration 50s
param Thesis.manager.numVehicles 5

vector 0 Thesis.node[0].veinsmobility posx ETV
vector 1 Thesis.node[0].veinsmobility posy ETV
vector 2 Thesis.node[0].veinsmobility speed ETV
vector 3 Thesis.node[1].veinsmobility posx ETV
vector 4 Thesis.node[1].veinsmobility posy ETV
vector 5 Thesis.node[2].veinsmobility posx ETV
vector 6 Thesis.node[2].veinsmobility posy ETV
vector 7 Thesis.node[3].veinsmobility posx ETV
vector 8 Thesis.node[3].veinsmobility posy ETV
vector 9 Thesis.node[4].veinsmobility posx ETV
vector 10 Thesis.node[4].veinsmobility posy ETV
vector 11 Thesis.node[0].veinsmobility acceleration ETV
vector 12 Thesis.node[0].veinsmobility co2emission ETV
vector 13 Thesis.node[1].veinsmobility speed ETV
vector 14 Thesis.node[2].veinsmobility speed ETV
vector 15 Thesis.node[3].veinsmobility speed ETV
vector 16 Thesis.node[4].veinsmobility speed ETV
vector 17 Thesis.node[1].veinsmobility acceleration ETV
vector 18 Thesis.node[1].veinsmobility co2emission ETV
vector 19 Thesis.node[2].veinsmobility acceleration ETV
vector 20 Thesis.node[2].veinsmobility co2emission ETV
vector 21 Thesis.node[3].veinsmobility acceleration ETV
vector 22 Thesis.node[3].veinsmobility co2emission ETV
vector 23 Thesis.node[4].veinsmobility acceleration ETV
vector 24 Thesis.node[4].veinsmobility co2emission ETV
vector 25 Thesis.node[5].veinsmobility posx ETV
vector 26 Thesis.node[5].veinsmobility posy ETV
vector 27 Thesis.node[5].veinsmobility speed ETV
vector 28 Thesis.node[5].veinsmobility acceleration ETV
vector 29 Thesis.node[5].veinsmobility co2emission ETV
24	6	5	1.6399839049095
24	7	6	1.6200030926325
24	8	7	1.5821891620849
24	9	8	1.4348047179128
24	10	9	1.744154036794
24	11	10	1.5897884597155
24	12	11	1.5420512799965
24	13	12	1.7534013685363
24	14	13	1.386604834889
24	15	14	1.6184431870354
24	17	15	1.6877441748248
24	36	16	1.6779964554317
24	75	17	1.4314573487021
24	208	18	1.5718047909647
24	209	19	1.6041188043117
24	210	20	1.5681664789731
24	211	21	0.973
24	212	22	0.973
24	213	23	3.6453435662591
24	214	24	4.6802411815738
24	215	25	1.4999647259479
24	216	26	1.9518064141905
24	217	27	6.1076026042474
24	218	28	7.3420103014141
24	219	29	0.973
24	220	30	0.973
24	221	31	0.973
24	222	32	0.973
24	223	33	0.973
24	224	34	0.973
24	225	35	0.973
24	226	36	0.973
24	227	37	0.973
24	228	38	0.973
24	229	39	0.973
24	230	40	0.973
24	231	41	0.973
24	232	42	0.973
24	233	43	0.973
24	234	44	0.973
24	235	45	0.973
24	236	46	0.973
24	237	47	0.973
24	238	48	0.973
24	239	49	0.973
24	240	50	0.973
24	241	51	0.973
24	242	52	0.973
24	243	53	0.973
24	244	54	0.973
24	246	55	0.973
24	267	56	0.973
24	268	57	0.973
24	269	58	0.973
24	270	59	0.973
24	271	60	0.973
24	272	61	0.973
24	273	62	0.973
24	274	63	0.973
24	275	64	0.973
24	276	65	0.973
24	277	66	0.973
24	278	67	0.973
24	279	68	0.973
24	280	69	0.973
24	281	70	0.973
24	282	71	0.973
24	283	72	0.973
24	284	73	0.973
24	285	74	0.973
24	286	75	0.973
24	287	76	0.973
24	288	77	0.973
24	289	78	0.973
24	290	79	0.973
24	291	80	0.973
24	292	81	2.3743358356408
24	293	82	2.2060615494702
24	294	83	5.129624044422
24	295	84	5.1725205940977
24	296	85	6.128401047871
24	297	86	2.2916826010836
24	298	87	5.5676681640539
24	299	88	7.5202667261191
24	300	89	9.4206000627251
24	301	90	10.301919400878
24	302	91	11.411016979997
24	303	92	13.67870126268
24	304	93	8.115778959811
24	305	94	3.2521176815331
24	307	95	3.5191176229597
24	324	96	2.9211957629859
24	325	97	3.4838313337713
24	326	98	3.1121288906528
24	327	99	3.1706534371099
24	328	100	2.6594916135637
23	6	5	0.020367288864218
23	7	6	0.010575645361095
23	8	7	-0.0070261032669805
23	9	8	-0.074748954658862
23	10	9	0.069601483468432
23	11	10	-0.0031702748755915
23	12	11	-0.024965427357239
23	13	12	0.072156031220221
23	14	13	-0.098024768140167
23	15	14	0.011699605437462
23	17	15	0.04294656863436
23	36	16	0.036972338638735
23	75	17	-0.077070702449419
23	208	18	-0.010191243179143
23	209	19	0.0049835300748242
23	210	20	-0.011706144926139
23	211	21	-2.4971220568172
23	212	22	-2.4828872431326
23	213	23	1.7130311337659
23	214	24	1.8143522326624
23	215	25	0.0017130365129558
23	216	26	0.24235158870462
23	217	27	1.9533599976846
23	218	28	2.0019081797288
23	219	29	-1.4448230585135
23	220	30	-3.0179749594543
23	221	31	-2.6094734976907
23	222	32	-2.0276525534495
23	223	33	-1.2442500485746
23	224	34	-0.66417202346188
23	225	35	-0.15340744074843
23	226	36	-0.31791286647906
23	227	37	0
23	228	38	0
23	229	39	0
23	230	40	0
23	231	41	0
23	232	42	0
23	233	43	0
23	234	44	0
23	235	45	0
23	236	46	0
23	237	47	0
23	238	48	0
23	239	49	0
23	240	50	0
23	241	51	0
23	242	52	0
23	243	53	0
23	244	54	0
23	246	55	0
23	267	56	0
23	268	57	0
23	269	58	0
23	270	59	0
23	271	60	0
23	272	61	0
23	273	62	0
23	274	63	0
23	275	64	0
23	276	65	0
23	277	66	0
23	278	67	0
23	279	68	0
23	280	69	0
23	281	70	0
23	282	71	0
23	283	72	0
23	284	73	0
23	285	74	0
23	286	75	0
23	287	76	0
23	288	77	0
23	289	78	0
23	290	79	0
23	291	80	0
23	292	81	2.1916822653016
23	293	82	1.15463838332
23	294	83	2.5940394537663
23	295	84	1.9205476789176
23	296	85	1.8972628164897
23	297	86	0.25129120198313
23	298	87	1.3748895892152
23	299	88	1.7575816881144
23	300	89	1.9908101750445
23	301	90	1.9243711924227
23	302	91	1.9148158530961
23	303	92	2.1040553117963
23	304	93	0.93482476448053
23	305	94	0.017338965535167
23	307	95	0.065191379345485
23	324	96	-0.045629036421886
23	325	97	0.058101366048213
23	326	98	-0.011285961961839
23	327	99	-0.00028516000136847
23	328	100	-0.093467099091502
16	5	4	8.7705607064168
16	6	5	8.790927995281
16	7	6	8.8015036406421
16	8	7	8.7944775373751
16	9	8	8.7197285827163
16	10	9	8.7893300661847
16	11	10	8.7861597913091
16	12	11	8.7611943639519
16	13	12	8.8333503951721
16	14	13	8.7353256270319
16	15	14	8.7470252324694
16	17	15	8.7899718011037
16	36	16	8.8269441397425
16	75	17	8.7498734372931
16	208	18	8.7396821941139
16	209	19	8.7446657241887
16	210	20	8.7329595792626
16	211	21	6.2358375224453
16	212	22	3.7529502793128
16	213	23	5.4659814130787
16	214	24	7.2803336457411
16	215	25	7.282046682254
16	216	26	7.5243982709586
16	217	27	9.4777582686432
16	218	28	11.479666448372
16	219	29	10.034843389858
16	220	30	7.0168684304042
16	221	31	4.4073949327134
16	222	32	2.379742379264
16	223	33	1.1354923306894
16	224	34	0.47132030722749
16	225	35	0.31791286647906
16	226	36	0
16	227	37	0
16	228	38	0
16	229	39	0
16	230	40	0
16	231	41	0
16	232	42	0
16	233	43	0
16	234	44	0
16	235	45	0
16	236	46	0
16	237	47	0
16	238	48	0
16	239	49	0
16	240	50	0
16	241	51	0
16	242	52	0
16	243	53	0
16	244	54	0
16	246	55	0
16	267	56	0
16	268	57	0
16	269	58	0
16	270	59	0
16	271	60	0
16	272	61	0
16	273	62	0
16	274	63	0
16	275	64	0
16	276	65	0
16	277	66	0
16	278	67	0
16	279	68	0
16	280	69	0
16	281	70	0
16	282	71	0
16	283	72	0
16	284	73	0
16	285	74	0
16	286	75	0
16	287	76	0
16	288	77	0
16	289	78	0
16	290	79	0
16	291	80	0
16	292	81	2.1916822653016
16	293	82	3.3463206486215
16	294	83	5.9403601023878
16	295	84	7.8609077813055
16	296	85	9.7581705977951
16	297	86	10.009461799778
16	298	87	11.384351388993
16	299	88	13.141933077108
16	300	89	15.132743252152
16	301	90	17.057114444575
16	302	91	18.971930297671
16	303	92	21.075985609467
16	304	93	22.010810373948
16	305	94	22.028149339483
16	307	95	22.093340718829
16	324	96	22.047711682407
16	325	97	22.105813048455
16	326	98	22.094527086493
16	327	99	22.094241926492
16	328	100	22.0007748274
10	4	3	2286.6472114726
10	5	4	2286.6472114726
10	6	5	2289.2961787196
10	7	6	2291.9427004933
10	8	7	2294.5919963173
10	9	8	2297.2344039898
10	10	9	2299.8842449809
10	11	10	2302.5428424504
10	12	11	2305.1910947593
10	13	12	2307.8460452389
10	14	13	2310.5059774814
10	15	14	2313.1821923794
10	17	15	2315.8635937251
10	36	16	2318.5439029668
10	75	17	2321.1923832471
10	208	18	2323.845718004
10	209	19	2326.4911611242
10	210	20	2329.1477024604
10	211	21	2331.795780994
10	212	22	2334.0542054147
10	213	23	2335.5035836963
10	214	24	2336.8387751919
10	215	25	2338.0542806245
10	216	26	2335.4201235945
10	217	27	2329.1140627145
10	218	28	2320.8735157472
10	219	29	2310.759636073
10	220	30	2299.9898059343
10	221	31	2292.044911825
10	222	32	2286.7460531659
10	223	33	2283.6457531396
10	224	34	2282.063004931
10	225	35	2281.3772596462
10	226	36	2280.9718702878
10	227	37	2280.9717365196
10	228	38	2280.9717365196
10	229	39	2280.9717365196
10	230	40	2280.9717365196
10	231	41	2280.9717365196
10	232	42	2280.9717365196
10	233	43	2280.9717365196
10	234	44	2280.9717365196
10	235	45	2280.9717365196
10	236	46	2280.9717365196
10	237	47	2280.9717365196
10	238	48	2280.9717365196
10	239	49	2280.9717365196
10	240	50	2280.9717365196
10	241	51	2280.9717365196
10	242	52	2280.9717365196
10	243	53	2280.9717365196
10	244	54	2280.9717365196
10	246	55	2280.9717365196
10	267	56	2280.9717365196
10	268	57	2280.9717365196
10	269	58	2280.9717365196
10	270	59	2280.9717365196
10	271	60	2280.9717365196
10	272	61	2280.9717365196
10	273	62	2280.9717365196
10	274	63	2280.9717365196
10	275	64	2280.9717365196
10	276	65	2280.9717365196
10	277	66	2280.9717365196
10	278	67	2280.9717365196
10	279	68	2280.9717365196
10	280	69	2280.9717365196
10	281	70	2280.9717365196
10	282	71	2280.9717365196
10	283	72	2280.9717365196
10	284	73	2280.9717365196
10	285	74	2280.9717365196
10	286	75	2280.9717365196
10	287	76	2280.9717365196
10	288	77	2280.9717365196
10	289	78	2280.9717365196
10	290	79	2280.9717365196
10	291	80	2280.9717365196
10	292	81	2280.9717365196
10	293	82	2279.8456244239
10	294	83	2277.8182009927
10	295	84	2275.3348375135
10	296	85	2273.2860337478
10	297	86	2271.9876764937
10	298	87	2272.1401155584
10	299	88	2274.7423430905
10	300	89	2278.2796058094
10	301	90	2282.3782662184
10	302	91	2287.0179927188
10	303	92	2292.2962414761
10	304	93	2298.3018062403
10	305	94	2305.0556691651
10	307	95	2311.8634525076
10	324	96	2318.7029433861
10	325	97	2325.5340450347
10	326	98	2332.3590006483
10	327	99	2339.0369865068
10	328	100	2345.7093090506
9	4	3	2445.0530060817
9	5	4	2445.0530060817
9	6	5	2436.6754840495
9	7	6	2428.3056959769
9	8	7	2419.9271347995
9	9	8	2411.5703578253
9	10	9	2403.1900725235
9	11	10	2394.7820943194
9	12	11	2386.4068333226
9	13	12	2378.0346326386
9	14	13	2369.6560892132
9	15	14	2361.2898234193
9	17	15	2352.939293407
9	36	16	2344.556128919
9	75	17	2336.1815292339
9	208	18	2327.7915795013
9	209	19	2319.4265834367
9	210	20	2311.026494373
9	211	21	2302.653165027
9	212	22	2295.5119374393
9	213	23	2290.9333249643
9	214	24	2286.8033537542
9	215	25	2280.2813994683
9	216	26	2273.6688240402
9	217	27	2270.0791186247
9	218	28	2267.3885956252
9	219	29	2264.08643304
9	220	30	2260.5701038686
9	221	31	2257.9761109681
9	222	32	2256.2460436377
9	223	33	2255.2338015427
9	224	34	2254.717037246
9	225	35	2254.4931427075
9	226	36	2254.3607838487
9	227	37	2254.3607401736
9	228	38	2254.3607401736
9	229	39	2254.3607401736
9	230	40	2254.3607401736
9	231	41	2254.3607401736
9	232	42	2254.3607401736
9	233	43	2254.3607401736
9	234	44	2254.3607401736
9	235	45	2254.3607401736
9	236	46	2254.3607401736
9	237	47	2254.3607401736
9	238	48	2254.3607401736
9	239	49	2254.3607401736
9	240	50	2254.3607401736
9	241	51	2254.3607401736
9	242	52	2254.3607401736
9	243	53	2254.3607401736
9	244	54	2254.3607401736
9	246	55	2254.3607401736
9	267	56	2254.3607401736
9	268	57	2254.3607401736
9	269	58	2254.3607401736
9	270	59	2254.3607401736
9	271	60	2254.3607401736
9	272	61	2254.3607401736
9	273	62	2254.3607401736
9	274	63	2254.3607401736
9	275	64	2254.3607401736
9	276	65	2254.3607401736
9	277	66	2254.3607401736
9	278	67	2254.3607401736
9	279	68	2254.3607401736
9	280	69	2254.3607401736
9	281	70	2254.3607401736
9	282	71	2254.3607401736
9	283	72	2254.3607401736
9	284	73	2254.3607401736
9	285	74	2254.3607401736
9	286	75	2254.3607401736
9	287	76	2254.3607401736
9	288	77	2254.3607401736
9	289	78	2254.3607401736
9	290	79	2254.3607401736
9	291	80	2254.3607401736
9	292	81	2254.3607401736
9	293	82	2253.8422511079
9	294	83	2251.4268040535
9	295	84	2247.4452760497
9	296	85	2240.780776444
9	297	86	2232.0262587899
9	298	87	2222.0978415286
9	299	88	2211.9058642695
9	300	89	2200.0862815382
9	301	90	2186.3908170957
9	302	91	2170.8874079402
9	303	92	2153.6420153509
9	304	93	2134.467483079
9	305	94	2113.6518861602
9	307	95	2092.6813913857
9	324	96	2071.7241860267
9	325	97	2050.7966826753
9	326	98	2029.6747873761
9	327	99	2008.6528340525
9	328	100	1987.6487085502
12	4	3	3.9617586426607
12	5	4	5.1124113818075
12	6	5	5.7497459316788
12	7	6	8.1901554707199
12	8	7	7.7495287368658
12	9	8	10.637025703678
12	10	9	11.112966073315
12	11	10	11.933137074224
12	12	11	3.3961924297057
12	13	12	0.973
12	14	13	0.973
12	15	14	0.973
12	17	15	0.973
12	36	16	0.973
12	75	17	0.973
12	208	18	0.973
12	209	19	0.973
12	210	20	0.973
12	211	21	0.973
12	212	22	0.973
12	213	23	0.973
12	214	24	0.973
12	215	25	0.973
12	216	26	0.973
12	217	27	0.973
12	218	28	0.973
12	219	29	0.973
12	220	30	0.973
12	221	31	0.973
12	222	32	0.973
12	223	33	0.973
12	224	34	0.973
12	225	35	0.973
12	226	36	0.973
12	227	37	0.973
12	228	38	0.973
12	229	39	0.973
12	230	40	0.973
12	231	41	0.973
12	232	42	0.973
12	233	43	0.973
12	234	44	0.973
12	235	45	0.973
12	236	46	0.973
12	237	47	0.973
12	238	48	0.973
12	239	49	0.973
12	240	50	0.973
12	241	51	0.973
12	242	52	0.973
12	243	53	0.973
12	244	54	0.973
12	246	55	0.973
12	267	56	0.973
12	268	57	0.973
12	269	58	0.973
12	270	59	0.973
12	271	60	0.973
12	272	61	0.973
12	273	62	2.4609034674215
12	274	63	3.4461054616921
12	275	64	4.6185691332668
12	276	65	5.6447870000187
12	277	66	6.4083361516895
12	278	67	7.4780349057124
12	279	68	8.2806772660203
12	280	69	0.973
12	281	70	0.973
12	282	71	0.973
12	283	72	0.973
12	284	73	0.973
12	285	74	0.973
12	286	75	1.1206189055339
12	287	76	0.973
12	288	77	0.973
12	289	78	0.973
12	290	79	0.973
12	291	80	0.973
12	292	81	0.973
12	293	82	0.973
12	294	83	0.973
12	295	84	0.973
12	296	85	0.973
12	297	86	0.973
12	298	87	0.973
12	299	88	0.973
12	300	89	0.973
12	301	90	0.973
12	302	91	0.973
12	303	92	0.973
12	304	93	0.973
12	305	94	0.973
12	307	95	0.973
12	324	96	0.973
12	325	97	0.973
12	326	98	0.973
12	327	99	0.973
12	328	100	0.973
12	330	101	0.973
12	331	102	0.973
12	367	103	0.973
12	400	104	0.973
12	499	105	0.973
12	500	106	0.973
12	501	107	0.973
12	502	108	0.973
12	503	109	0.973
12	504	110	2.3589630095001
12	505	111	3.264398170838
12	506	112	4.0062089344317
12	507	113	5.464985595244
12	508	114	6.6764466912473
12	509	115	0.973
12	510	116	0.973
12	511	117	0.973
12	512	118	2.2895673841126
12	513	119	5.2276608874633
12	514	120	6.5847614313901
12	515	121	7.2039676515229
12	516	122	8.0525797409199
12	517	123	9.6209500952207
12	518	124	8.8376075195265
12	519	125	11.606808353866
12	520	126	12.339300272661
11	4	3	1.8505604249425
11	5	4	1.9408753749891
11	6	5	1.7976490879292
11	7	6	2.2525302506192
11	8	7	1.7711721954215
11	9	8	2.220266340801
11	10	9	2.0193621406588
11	11	10	1.9344968881644
11	12	11	0.12866702400014
11	13	12	-3.6058691922551
11	14	13	-3.4661584346093
11	15	14	-3.2858650011842
11	17	15	-2.9808989944705
11	36	16	-2.4859596596694
11	75	17	-1.901269453945
11	208	18	-1.1183530412104
11	209	19	-0.52426114242657
11	210	20	-0.43073516073129
11	211	21	-0.00055565274770432
11	212	22	0
11	213	23	0
11	214	24	0
11	215	25	0
11	216	26	0
11	217	27	0
11	218	28	0
11	219	29	0
11	220	30	0
11	221	31	0
11	222	32	0
11	223	33	0
11	224	34	0
11	225	35	0
11	226	36	0
11	227	37	0
11	228	38	0
11	229	39	0
11	230	40	0
11	231	41	0
11	232	42	0
11	233	43	0
11	234	44	0
11	235	45	0
11	236	46	0
11	237	47	0
11	238	48	0
11	239	49	0
11	240	50	0
11	241	51	0
11	242	52	0
11	243	53	0
11	244	54	0
11	246	55	0
11	267	56	0
11	268	57	0
11	269	58	0
11	270	59	0
11	271	60	0
11	272	61	0
11	273	62	2.2686612884649
11	274	63	2.0416139414147
11	275	64	2.0670712923491
11	276	65	2.0149561481993
11	277	66	1.8961098842625
11	278	67	1.9090977403661
11	279	68	1.8433544709976
11	280	69	-3.4284712944079
11	281	70	-3.0860616857661
11	282	71	-2.7359925382839
11	283	72	-2.1215072850957
11	284	73	-1.3658503040011
11	285	74	-0.75882298619422
11	286	75	-0.10084848729752
11	287	76	-0.44331018500787
11	288	77	0
11	289	78	0
11	290	79	0
11	291	80	0
11	292	81	0
11	293	82	0
11	294	83	0
11	295	84	0
11	296	85	0
11	297	86	0
11	298	87	0
11	299	88	0
11	300	89	0
11	301	90	0
11	302	91	0
11	303	92	0
11	304	93	0
11	305	94	0
11	307	95	0
11	324	96	0
11	325	97	0
11	326	98	0
11	327	99	0
11	328	100	0
11	330	101	0
11	331	102	0
11	367	103	0
11	400	104	0
11	499	105	0
11	500	106	0
11	501	107	0
11	502	108	0
11	503	109	0
11	504	110	2.1777398411791
11	505	111	1.9558900484112
11	506	112	1.8086610443075
11	507	113	2.0394042162318
11	508	114	2.061067879023
11	509	115	-0.24346513183774
11	510	116	-2.9890532064308
11	511	117	-2.5768315163041
11	512	118	0.76871968102526
11	513	119	2.1642857557535
11	514	120	2.1933324478683
11	515	121	1.9803432866046
11	516	122	1.9071592041664
11	517	123	2.0231102225045
11	518	124	1.592355753202
11	519	125	1.9758258865052
11	520	126	1.8837578355172
2	3	2	3.8843460057235
2	4	3	5.7349064306661
2	5	4	7.6757818056552
2	6	5	9.4734308935843
2	7	6	11.725961144204
2	8	7	13.497133339625
2	9	8	15.717399680426
2	10	9	17.736761821085
2	11	10	19.671258709249
2	12	11	19.799925733249
2	13	12	16.194056540994
2	14	13	12.727898106385
2	15	14	9.4420331052009
2	17	15	6.4611341107304
2	36	16	3.975174451061
2	75	17	2.073904997116
2	208	18	0.95555195590556
2	209	19	0.43129081347899
2	210	20	0.00055565274770432
2	211	21	0
2	212	22	0
2	213	23	0
2	214	24	0
2	215	25	0
2	216	26	0
2	217	27	0
2	218	28	0
2	219	29	0
2	220	30	0
2	221	31	0
2	222	32	0
2	223	33	0
2	224	34	0
2	225	35	0
2	226	36	0
2	227	37	0
2	228	38	0
2	229	39	0
2	230	40	0
2	231	41	0
2	232	42	0
2	233	43	0
2	234	44	0
2	235	45	0
2	236	46	0
2	237	47	0
2	238	48	0
2	239	49	0
2	240	50	0
2	241	51	0
2	242	52	0
2	243	53	0
2	244	54	0
2	246	55	0
2	267	56	0
2	268	57	0
2	269	58	0
2	270	59	0
2	271	60	0
2	272	61	0
2	273	62	2.2686612884649
2	274	63	4.3102752298796
2	275	64	6.3773465222288
2	276	65	8.392302670428
2	277	66	10.288412554691
2	278	67	12.197510295057
2	279	68	14.040864766054
2	280	69	10.612393471646
2	281	70	7.5263317858803
2	282	71	4.7903392475964
2	283	72	2.6688319625007
2	284	73	1.3029816584996
2	285	74	0.54415867230538
2	286	75	0.44331018500787
2	287	76	0
2	288	77	0
2	289	78	0
2	290	79	0
2	291	80	0
2	292	81	0
2	293	82	0
2	294	83	0
2	295	84	0
2	296	85	0
2	297	86	0
2	298	87	0
2	299	88	0
2	300	89	0
2	301	90	0
2	302	91	0
2	303	92	0
2	304	93	0
2	305	94	0
2	307	95	0
2	324	96	0
2	325	97	0
2	326	98	0
2	327	99	0
2	328	100	0
2	330	101	0
2	331	102	0
2	367	103	0
2	400	104	0
2	499	105	0
2	500	106	0
2	501	107	0
2	502	108	0
2	503	109	0
2	504	110	2.1777398411791
2	505	111	4.1336298895903
2	506	112	5.9422909338978
2	507	113	7.9816951501296
2	508	114	10.042763029153
2	509	115	9.7992978973149
2	510	116	6.8102446908841
2	511	117	4.23341317458
2	512	118	5.0021328556053
2	513	119	7.1664186113588
2	514	120	9.3597510592271
2	515	121	11.340094345832
2	516	122	13.247253549998
2	517	123	15.270363772503
2	518	124	16.862719525705
2	519	125	18.83854541221
2	520	126	20.722303247727
1	2	1	2332.2523312561
1	3	2	2332.2523312561
1	4	3	2331.3055000344
1	5	4	2329.7719584994
1	6	5	2327.6787577718
1	7	6	2325.0051341262
1	8	7	2321.7005936874
1	9	8	2317.7740775617
1	10	9	2313.2234854893
1	11	10	2308.0449268339
1	12	11	2302.2987595048
1	13	12	2296.2607672306
1	14	13	2291.120455016
1	15	14	2287.0330342487
1	17	15	2283.9172869947
1	36	16	2281.6863659116
1	75	17	2280.2377249269
1	208	18	2279.4124906457
1	209	19	2279.0085905256
1	210	20	2278.834697906
1	211	21	2278.7369743581
1	212	22	2278.7369738113
1	213	23	2278.7369738113
1	214	24	2278.7369738113
1	215	25	2278.7369738113
1	216	26	2278.7369738113
1	217	27	2278.7369738113
1	218	28	2278.7369738113
1	219	29	2278.7369738113
1	220	30	2278.7369738113
1	221	31	2278.7369738113
1	222	32	2278.7369738113
1	223	33	2278.7369738113
1	224	34	2278.7369738113
1	225	35	2278.7369738113
1	226	36	2278.7369738113
1	227	37	2278.7369738113
1	228	38	2278.7369738113
1	229	39	2278.7369738113
1	230	40	2278.7369738113
1	231	41	2278.7369738113
1	232	42	2278.7369738113
1	233	43	2278.7369738113
1	234	44	2278.7369738113
1	235	45	2278.7369738113
1	236	46	2278.7369738113
1	237	47	2278.7369738113
1	238	48	2278.7369738113
1	239	49	2278.7369738113
1	240	50	2278.7369738113
1	241	51	2278.7369738113
1	242	52	2278.7369738113
1	243	53	2278.7369738113
1	244	54	2278.7369738113
1	246	55	2278.7369738113
1	267	56	2278.7369738113
1	268	57	2278.7369738113
1	269	58	2278.7369738113
1	270	59	2278.7369738113
1	271	60	2278.7369738113
1	272	61	2278.7369738113
1	273	62	2278.7369738113
1	274	63	2278.3752454676
1	275	64	2277.5545660435
1	276	65	2276.2258327983
1	277	66	2275.0401158868
1	278	67	2275.5924462867
1	279	68	2285.4434509522
1	280	69	2298.075298357
1	281	70	2309.5885527907
1	282	71	2318.0556079457
1	283	72	2323.7635324147
1	284	73	2327.1982972193
1	285	74	2328.9909214674
1	286	75	2329.8004918486
1	287	76	2330.2224709034
1	288	77	2330.2884810828
1	289	78	2330.2884810828
1	290	79	2330.2884810828
1	291	80	2330.2884810828
1	292	81	2330.2884810828
1	293	82	2330.2884810828
1	294	83	2330.2884810828
1	295	84	2330.2884810828
1	296	85	2330.2884810828
1	297	86	2330.2884810828
1	298	87	2330.2884810828
1	299	88	2330.2884810828
1	300	89	2330.2884810828
1	301	90	2330.2884810828
1	302	91	2330.2884810828
1	303	92	2330.2884810828
1	304	93	2330.2884810828
1	305	94	2330.2884810828
1	307	95	2330.2884810828
1	324	96	2330.2884810828
1	325	97	2330.2884810828
1	326	98	2330.2884810828
1	327	99	2330.2884810828
1	328	100	2330.2884810828
1	330	101	2330.2884810828
1	331	102	2330.2884810828
1	367	103	2330.2884810828
1	400	104	2330.2884810828
1	499	105	2330.2884810828
1	500	106	2330.2884810828
1	501	107	2330.2884810828
1	502	108	2330.2884810828
1	503	109	2330.2884810828
1	504	110	2330.2884810828
1	505	111	2331.4556337975
1	506	112	2334.5491245151
1	507	113	2339.4214312856
1	508	114	2346.1630162492
1	509	115	2354.8312043116
1	510	116	2364.8778312684
1	511	117	2372.602920261
1	512	118	2377.6813466176
1	513	119	2381.5696760099
1	514	120	2387.5135507282
1	515	121	2395.4764812871
1	516	122	2405.3613473987
1	517	123	2417.1613998842
1	518	124	2430.7974020494
1	519	125	2446.1677842617
1	520	126	2463.2636465974
0	2	1	2050.8270289986
0	3	2	2050.8270289986
0	4	3	2053.7294031305
0	5	4	2058.4302528487
0	6	5	2064.8466568557
0	7	6	2073.042263348
0	8	7	2083.1718539949
0	9	8	2095.212561674
0	10	9	2109.2279973698
0	11	10	2125.1884618906
0	12	11	2143.0343351237
0	13	12	2162.4400217365
0	14	13	2179.4947976068
0	15	14	2193.1551325703
0	17	15	2203.568093108
0	36	16	2211.0239267513
0	75	17	2215.8653468595
0	208	18	2218.6233151105
0	209	19	2219.9731665809
0	210	20	2220.5543231502
0	211	21	2220.8809194256
0	212	22	2220.8809212529
0	213	23	2220.8809212529
0	214	24	2220.8809212529
0	215	25	2220.8809212529
0	216	26	2220.8809212529
0	217	27	2220.8809212529
0	218	28	2220.8809212529
0	219	29	2220.8809212529
0	220	30	2220.8809212529
0	221	31	2220.8809212529
0	222	32	2220.8809212529
0	223	33	2220.8809212529
0	224	34	2220.8809212529
0	225	35	2220.8809212529
0	226	36	2220.8809212529
0	227	37	2220.8809212529
0	228	38	2220.8809212529
0	229	39	2220.8809212529
0	230	40	2220.8809212529
0	231	41	2220.8809212529
0	232	42	2220.8809212529
0	233	43	2220.8809212529
0	234	44	2220.8809212529
0	235	45	2220.8809212529
0	236	46	2220.8809212529
0	237	47	2220.8809212529
0	238	48	2220.8809212529
0	239	49	2220.8809212529
0	240	50	2220.8809212529
0	241	51	2220.8809212529
0	242	52	2220.8809212529
0	243	53	2220.8809212529
0	244	54	2220.8809212529
0	246	55	2220.8809212529
0	267	56	2220.8809212529
0	268	57	2220.8809212529
0	269	58	2220.8809212529
0	270	59	2220.8809212529
0	271	60	2220.8809212529
0	272	61	2220.8809212529
0	273	62	2220.8809212529
0	274	63	2222.1361728015
0	275	64	2225.3876535647
0	276	65	2230.6520119239
0	277	66	2238.0132024754
0	278	67	2247.3699970271
0	279	68	2252.4515902617
0	280	69	2256.5774982866
0	281	70	2260.3380431491
0	282	71	2263.1036157287
0	283	72	2264.9679805059
0	284	73	2266.0898689532
0	285	74	2266.6753892286
0	286	75	2266.9398171325
0	287	76	2267.0776470725
0	288	77	2267.0992078086
0	289	78	2267.0992078086
0	290	79	2267.0992078086
0	291	80	2267.0992078086
0	292	81	2267.0992078086
0	293	82	2267.0992078086
0	294	83	2267.0992078086
0	295	84	2267.0992078086
0	296	85	2267.0992078086
0	297	86	2267.0992078086
0	298	87	2267.0992078086
0	299	88	2267.0992078086
0	300	89	2267.0992078086
0	301	90	2267.0992078086
0	302	91	2267.0992078086
0	303	92	2267.0992078086
0	304	93	2267.0992078086
0	305	94	2267.0992078086
0	307	95	2267.0992078086
0	324	96	2267.0992078086
0	325	97	2267.0992078086
0	326	98	2267.0992078086
0	327	99	2267.0992078086
0	328	100	2267.0992078086
0	330	101	2267.0992078086
0	331	102	2267.0992078086
0	367	103	2267.0992078086
0	400	104	2267.0992078086
0	499	105	2267.0992078086
0	500	106	2267.0992078086
0	501	107	2267.0992078086
0	502	108	2267.0992078086
0	503	109	2267.0992078086
0	504	110	2267.0992078086
0	505	111	2267.4828600165
0	506	112	2268.5281126039
0	507	113	2270.1744053273
0	508	114	2272.4523042349
0	509	115	2275.3811787094
0	510	116	2278.6924140214
0	511	117	2281.204385954
0	512	118	2282.8557409716
0	513	119	2284.1201114284
0	514	120	2286.0533307863
0	515	121	2288.6414260571
0	516	122	2291.854096983
0	517	123	2295.689966756
0	518	124	2300.1275986123
0	519	125	2305.1296583745
0	520	126	2310.6932496963
22	6	5	4.894919146735
22	7	6	6.0643025077531
22	8	7	7.1430290783258
22	9	8	7.4905666297623
22	10	9	9.3040600914139
22	11	10	10.090808110796
22	12	11	11.325357004101
22	13	12	0.973
22	14	13	0.973
22	15	14	0.973
22	17	15	0.973
22	36	16	0.973
22	75	17	0.973
22	208	18	0.973
22	209	19	0.973
22	210	20	0.973
22	211	21	0.973
22	212	22	1.125869330388
22	213	23	0.973
22	214	24	0.973
22	215	25	0.973
22	216	26	0.973
22	217	27	0.973
22	218	28	0.973
22	219	29	0.973
22	220	30	0.973
22	221	31	0.973
22	222	32	0.973
22	223	33	0.973
22	224	34	0.973
22	225	35	0.973
22	226	36	0.973
22	227	37	0.973
22	228	38	0.973
22	229	39	0.973
22	230	40	0.973
22	231	41	0.973
22	232	42	0.973
22	233	43	0.973
22	234	44	0.973
22	235	45	0.973
22	236	46	0.973
22	237	47	0.973
22	238	48	0.973
22	239	49	0.973
22	240	50	0.973
22	241	51	0.973
22	242	52	0.973
22	243	53	0.973
22	244	54	0.973
22	246	55	0.973
22	267	56	0.973
22	268	57	0.973
22	269	58	0.973
22	270	59	0.973
22	271	60	0.973
22	272	61	0.973
22	273	62	1.3957575904754
22	274	63	2.3677519039384
22	275	64	3.2099933332422
22	276	65	4.5901400421449
22	277	66	5.6838320565421
22	278	67	6.0580906215702
22	279	68	7.713686740132
22	280	69	0.973
22	281	70	0.973
22	282	71	0.973
22	283	72	0.973
22	284	73	0.973
22	285	74	0.973
22	286	75	0.973
22	287	76	0.973
22	288	77	0.973
22	289	78	0.973
22	290	79	0.973
22	291	80	0.973
22	292	81	0.973
22	293	82	0.973
22	294	83	0.973
22	295	84	0.973
22	296	85	0.973
22	297	86	0.973
22	298	87	0.973
22	299	88	0.973
22	300	89	0.973
22	301	90	0.973
22	302	91	0.973
22	303	92	0.973
22	304	93	0.973
22	305	94	0.973
22	307	95	0.973
22	324	96	0.973
22	325	97	0.973
22	326	98	0.973
22	327	99	0.973
22	328	100	0.973
22	330	101	0.973
22	331	102	0.973
22	367	103	0.973
22	400	104	0.973
22	499	105	0.973
22	500	106	0.973
22	501	107	0.973
22	502	108	0.973
22	503	109	0.973
22	504	110	1.3456187816519
22	505	111	2.4341980491769
22	506	112	3.3345246324205
22	507	113	4.4231832760643
22	508	114	5.1696154368799
22	509	115	4.2883590156376
22	510	116	0.973
22	511	117	0.973
22	512	118	0.973
22	513	119	2.4720320953427
22	514	120	0.973
22	515	121	4.2886377394893
22	516	122	5.2487554293957
22	517	123	6.4886982737078
22	518	124	8.0664532834224
22	519	125	8.0453030947954
22	520	126	9.3598396199695
22	521	127	10.168332340323
22	522	128	11.522937758279
21	6	5	2.0704148522485
21	7	6	2.0705765163945
21	8	7	2.0359577251808
21	9	8	1.8092067196034
21	10	9	2.0144532988011
21	11	10	1.9222158128466
21	12	11	1.9388218248706
21	13	12	-0.94745188815756
21	14	13	-2.8939859118868
21	15	14	-2.6933340819098
21	17	15	-2.3612035397941
21	36	16	-2.3269488380353
21	75	17	-1.8837215017274
21	208	18	-1.7861646850213
21	209	19	-1.5530743723821
21	210	20	-1.0061177098819
21	211	21	-0.71270371095851
21	212	22	-0.050113999592649
21	213	23	-0.43861800635175
21	214	24	0
21	215	25	0
21	216	26	0
21	217	27	0
21	218	28	0
21	219	29	0
21	220	30	0
21	221	31	0
21	222	32	0
21	223	33	0
21	224	34	0
21	225	35	0
21	226	36	0
21	227	37	0
21	228	38	0
21	229	39	0
21	230	40	0
21	231	41	0
21	232	42	0
21	233	43	0
21	234	44	0
21	235	45	0
21	236	46	0
21	237	47	0
21	238	48	0
21	239	49	0
21	240	50	0
21	241	51	0
21	242	52	0
21	243	53	0
21	244	54	0
21	246	55	0
21	267	56	0
21	268	57	0
21	269	58	0
21	270	59	0
21	271	60	0
21	272	61	0
21	273	62	0.99324091356408
21	274	63	1.7202926117617
21	275	64	1.7461053365399
21	276	65	2.0143104217504
21	277	66	2.0094012783933
21	278	67	1.7633132170676
21	279	68	1.9830461362167
21	280	69	-1.0461347999163
21	281	70	-2.3602151980724
21	282	71	-2.0341391766478
21	283	72	-1.7478678592256
21	284	73	-1.4556621024705
21	285	74	-1.3494520800663
21	286	75	-0.9558968065638
21	287	76	-0.70518894694089
21	288	77	-0.14272286204487
21	289	78	-0.43243008334539
21	290	79	0
21	291	80	0
21	292	81	0
21	293	82	0
21	294	83	0
21	295	84	0
21	296	85	0
21	297	86	0
21	298	87	0
21	299	88	0
21	300	89	0
21	301	90	0
21	302	91	0
21	303	92	0
21	304	93	0
21	305	94	0
21	307	95	0
21	324	96	0
21	325	97	0
21	326	98	0
21	327	99	0
21	328	100	0
21	330	101	0
21	331	102	0
21	367	103	0
21	400	104	0
21	499	105	0
21	500	106	0
21	501	107	0
21	502	108	0
21	503	109	0
21	504	110	0.89360427518504
21	505	111	1.8210556539023
21	506	112	1.8251467022741
21	507	113	1.9140221238596
21	508	114	1.8116310814279
21	509	115	1.1643198773504
21	510	116	-2.1657338468518
21	511	117	-1.6770981377587
21	512	118	-0.36404338836378
21	513	119	0.73483998578801
21	514	120	-2.4075260823638
21	515	121	2.1154679680487
21	516	122	2.0135527254641
21	517	123	2.0560221040202
21	518	124	2.1700487000286
21	519	125	1.8236751555582
21	520	126	1.8969394107722
21	521	127	1.8355020734016
21	522	128	1.8891659603571
15	5	4	4.7917914957539
15	6	5	6.8622063480024
15	7	6	8.9327828643969
15	8	7	10.968740589578
15	9	8	12.777947309181
15	10	9	14.792400607982
15	11	10	16.714616420829
15	12	11	18.653438245699
15	13	12	17.705986357542
15	14	13	14.812000445655
15	15	14	12.118666363745
15	17	15	9.757462823951
15	36	16	7.4305139859157
15	75	17	5.5467924841883
15	208	18	3.760627799167
15	209	19	2.2075534267849
15	210	20	1.2014357169029
15	211	21	0.4887320059444
15	212	22	0.43861800635175
15	213	23	0
15	214	24	0
15	215	25	0
15	216	26	0
15	217	27	0
15	218	28	0
15	219	29	0
15	220	30	0
15	221	31	0
15	222	32	0
15	223	33	0
15	224	34	0
15	225	35	0
15	226	36	0
15	227	37	0
15	228	38	0
15	229	39	0
15	230	40	0
15	231	41	0
15	232	42	0
15	233	43	0
15	234	44	0
15	235	45	0
15	236	46	0
15	237	47	0
15	238	48	0
15	239	49	0
15	240	50	0
15	241	51	0
15	242	52	0
15	243	53	0
15	244	54	0
15	246	55	0
15	267	56	0
15	268	57	0
15	269	58	0
15	270	59	0
15	271	60	0
15	272	61	0
15	273	62	0.99324091356408
15	274	63	2.7135335253258
15	275	64	4.4596388618657
15	276	65	6.4739492836161
15	277	66	8.4833505620095
15	278	67	10.246663779077
15	279	68	12.229709915294
15	280	69	11.183575115378
15	281	70	8.8233599173052
15	282	71	6.7892207406573
15	283	72	5.0413528814318
15	284	73	3.5856907789613
15	285	74	2.236238698895
15	286	75	1.2803418923312
15	287	76	0.57515294539026
15	288	77	0.43243008334539
15	289	78	0
15	290	79	0
15	291	80	0
15	292	81	0
15	293	82	0
15	294	83	0
15	295	84	0
15	296	85	0
15	297	86	0
15	298	87	0
15	299	88	0
15	300	89	0
15	301	90	0
15	302	91	0
15	303	92	0
15	304	93	0
15	305	94	0
15	307	95	0
15	324	96	0
15	325	97	0
15	326	98	0
15	327	99	0
15	328	100	0
15	330	101	0
15	331	102	0
15	367	103	0
15	400	104	0
15	499	105	0
15	500	106	0
15	501	107	0
15	502	108	0
15	503	109	0
15	504	110	0.89360427518504
15	505	111	2.7146599290873
15	506	112	4.5398066313615
15	507	113	6.4538287552211
15	508	114	8.265459836649
15	509	115	9.4297797139994
15	510	116	7.2640458671476
15	511	117	5.586947729389
15	512	118	5.2229043410252
15	513	119	5.9577443268132
15	514	120	3.5502182444494
15	515	121	5.6656862124981
15	516	122	7.6792389379622
15	517	123	9.7352610419824
15	518	124	11.905309742011
15	519	125	13.728984897569
15	520	126	15.625924308341
15	521	127	17.461426381743
15	522	128	19.3505923421
8	4	3	2332.4037806754
8	5	4	2332.4037806754
8	6	5	2331.1930058161
8	7	6	2329.367062646
8	8	7	2326.8863421643
8	9	8	2323.7735105135
8	10	9	2320.0763802363
8	11	10	2315.7803755716
8	12	11	2310.8872698228
8	13	12	2305.4070545791
8	14	13	2299.7742366841
8	15	14	2295.0047027851
8	17	15	2291.187964927
8	36	16	2288.0932833941
8	75	17	2285.6674367866
8	208	18	2283.8429282321
8	209	19	2282.5457164466
8	210	20	2281.721336099
8	211	21	2281.2471952883
8	212	22	2281.0222288374
8	213	23	2280.8960485229
8	214	24	2280.8874137703
8	215	25	2280.8874137703
8	216	26	2280.8874137703
8	217	27	2280.8874137703
8	218	28	2280.8874137703
8	219	29	2280.8874137703
8	220	30	2280.8874137703
8	221	31	2280.8874137703
8	222	32	2280.8874137703
8	223	33	2280.8874137703
8	224	34	2280.8874137703
8	225	35	2280.8874137703
8	226	36	2280.8874137703
8	227	37	2280.8874137703
8	228	38	2280.8874137703
8	229	39	2280.8874137703
8	230	40	2280.8874137703
8	231	41	2280.8874137703
8	232	42	2280.8874137703
8	233	43	2280.8874137703
8	234	44	2280.8874137703
8	235	45	2280.8874137703
8	236	46	2280.8874137703
8	237	47	2280.8874137703
8	238	48	2280.8874137703
8	239	49	2280.8874137703
8	240	50	2280.8874137703
8	241	51	2280.8874137703
8	242	52	2280.8874137703
8	243	53	2280.8874137703
8	244	54	2280.8874137703
8	246	55	2280.8874137703
8	267	56	2280.8874137703
8	268	57	2280.8874137703
8	269	58	2280.8874137703
8	270	59	2280.8874137703
8	271	60	2280.8874137703
8	272	61	2280.8874137703
8	273	62	2280.8874137703
8	274	63	2280.7464686777
8	275	64	2280.1944869671
8	276	65	2279.146391204
8	277	66	2277.6885801252
8	278	67	2275.8303087869
8	279	68	2274.6429491085
8	280	69	2279.845775191
8	281	70	2291.3305648246
8	282	71	2300.7065775348
8	283	72	2308.0338167274
8	284	73	2313.5865082271
8	285	74	2317.5974549641
8	286	75	2320.2408497354
8	287	76	2321.8012906467
8	288	77	2322.6426223283
8	289	78	2323.0686007529
8	290	79	2323.1582683757
8	291	80	2323.1582683757
8	292	81	2323.1582683757
8	293	82	2323.1582683757
8	294	83	2323.1582683757
8	295	84	2323.1582683757
8	296	85	2323.1582683757
8	297	86	2323.1582683757
8	298	87	2323.1582683757
8	299	88	2323.1582683757
8	300	89	2323.1582683757
8	301	90	2323.1582683757
8	302	91	2323.1582683757
8	303	92	2323.1582683757
8	304	93	2323.1582683757
8	305	94	2323.1582683757
8	307	95	2323.1582683757
8	324	96	2323.1582683757
8	325	97	2323.1582683757
8	326	98	2323.1582683757
8	327	99	2323.1582683757
8	328	100	2323.1582683757
8	330	101	2323.1582683757
8	331	102	2323.1582683757
8	367	103	2323.1582683757
8	400	104	2323.1582683757
8	499	105	2323.1582683757
8	500	106	2323.1582683757
8	501	107	2323.1582683757
8	502	108	2323.1582683757
8	503	109	2323.1582683757
8	504	110	2323.1582683757
8	505	111	2323.5963628148
8	506	112	2325.3885904248
8	507	113	2328.9575165498
8	508	114	2334.2749825409
8	509	115	2341.3415472014
8	510	116	2350.1603194953
8	511	117	2357.969632352
8	512	118	2364.0302061634
8	513	119	2368.8863303665
8	514	120	2374.4626496227
8	515	121	2378.8083380574
8	516	122	2383.0826717808
8	517	123	2389.505395296
8	518	124	2397.886822074
8	519	125	2408.3044848884
8	520	126	2420.5435376545
8	521	127	2434.59350659
8	522	128	2450.3916822468
7	4	3	2050.3627827138
7	5	4	2050.3627827138
7	6	5	2054.0742378824
7	7	6	2059.6714025109
7	8	7	2067.2756922617
7	9	8	2076.8176273537
7	10	9	2088.1506453544
7	11	10	2101.3475896812
7	12	11	2116.4282802552
7	13	12	2133.3184589297
7	14	13	2151.1479756322
7	15	14	2166.5134754903
7	17	15	2179.269176598
7	36	16	2189.6117345951
7	75	17	2197.7190176751
7	208	18	2203.8166032719
7	209	19	2208.1519405217
7	210	20	2210.90705489
7	211	21	2212.4916537515
7	212	22	2213.2435012487
7	213	23	2213.6652012547
7	214	24	2213.6940589673
7	215	25	2213.6940589673
7	216	26	2213.6940589673
7	217	27	2213.6940589673
7	218	28	2213.6940589673
7	219	29	2213.6940589673
7	220	30	2213.6940589673
7	221	31	2213.6940589673
7	222	32	2213.6940589673
7	223	33	2213.6940589673
7	224	34	2213.6940589673
7	225	35	2213.6940589673
7	226	36	2213.6940589673
7	227	37	2213.6940589673
7	228	38	2213.6940589673
7	229	39	2213.6940589673
7	230	40	2213.6940589673
7	231	41	2213.6940589673
7	232	42	2213.6940589673
7	233	43	2213.6940589673
7	234	44	2213.6940589673
7	235	45	2213.6940589673
7	236	46	2213.6940589673
7	237	47	2213.6940589673
7	238	48	2213.6940589673
7	239	49	2213.6940589673
7	240	50	2213.6940589673
7	241	51	2213.6940589673
7	242	52	2213.6940589673
7	243	53	2213.6940589673
7	244	54	2213.6940589673
7	246	55	2213.6940589673
7	267	56	2213.6940589673
7	268	57	2213.6940589673
7	269	58	2213.6940589673
7	270	59	2213.6940589673
7	271	60	2213.6940589673
7	272	61	2213.6940589673
7	273	62	2213.6940589673
7	274	63	2214.1651034927
7	275	64	2216.0098499698
7	276	65	2219.5126308219
7	277	66	2224.8566981197
7	278	67	2232.219053422
7	279	68	2241.6215049079
7	280	69	2250.623235738
7	281	70	2254.3744832156
7	282	71	2257.4369462777
7	283	72	2259.8302236834
7	284	73	2261.6438851127
7	285	74	2262.9539703916
7	286	75	2263.817375668
7	287	76	2264.3270584937
7	288	77	2264.60186051
7	289	78	2264.7409967538
7	290	79	2264.7702846602
7	291	80	2264.7702846602
7	292	81	2264.7702846602
7	293	82	2264.7702846602
7	294	83	2264.7702846602
7	295	84	2264.7702846602
7	296	85	2264.7702846602
7	297	86	2264.7702846602
7	298	87	2264.7702846602
7	299	88	2264.7702846602
7	300	89	2264.7702846602
7	301	90	2264.7702846602
7	302	91	2264.7702846602
7	303	92	2264.7702846602
7	304	93	2264.7702846602
7	305	94	2264.7702846602
7	307	95	2264.7702846602
7	324	96	2264.7702846602
7	325	97	2264.7702846602
7	326	98	2264.7702846602
7	327	99	2264.7702846602
7	328	100	2264.7702846602
7	330	101	2264.7702846602
7	331	102	2264.7702846602
7	367	103	2264.7702846602
7	400	104	2264.7702846602
7	499	105	2264.7702846602
7	500	106	2264.7702846602
7	501	107	2264.7702846602
7	502	108	2264.7702846602
7	503	109	2264.7702846602
7	504	110	2264.7702846602
7	505	111	2264.9133783269
7	506	112	2265.4987690494
7	507	113	2266.6644782657
7	508	114	2268.4354833918
7	509	115	2270.8231889547
7	510	116	2273.8029439949
7	511	117	2276.4416150672
7	512	118	2278.4167912454
7	513	119	2279.9958601352
7	514	120	2281.8091152928
7	515	121	2283.2222054703
7	516	122	2284.6120931925
7	517	123	2286.7007690828
7	518	124	2289.424808622
7	519	125	2292.8106432971
7	520	126	2296.7906326352
7	521	127	2301.3629837519
7	522	128	2306.5042624578
vector 30 Thesis.node[6].veinsmobility posx ETV
vector 31 Thesis.node[6].veinsmobility posy ETV
vector 32 Thesis.node[6].veinsmobility speed ETV
vector 33 Thesis.node[7].veinsmobility posx ETV
vector 34 Thesis.node[7].veinsmobility posy ETV
vector 35 Thesis.node[6].veinsmobility acceleration ETV
vector 36 Thesis.node[6].veinsmobility co2emission ETV
vector 37 Thesis.node[7].veinsmobility speed ETV
vector 38 Thesis.node[7].veinsmobility acceleration ETV
vector 39 Thesis.node[7].veinsmobility co2emission ETV
vector 40 Thesis.node[8].veinsmobility posx ETV
vector 41 Thesis.node[8].veinsmobility posy ETV
vector 42 Thesis.node[8].veinsmobility speed ETV
vector 43 Thesis.node[8].veinsmobility acceleration ETV
vector 44 Thesis.node[8].veinsmobility co2emission ETV
3	4	3	2045.3088540848
3	5	4	2045.3088540848
3	6	5	2046.4111449059
3	7	6	2047.6928371293
3	8	7	2048.9744568835
3	9	8	2050.2548403927
3	10	9	2051.5329321339
3	11	10	2052.8145870766
3	12	11	2054.0932979271
3	13	12	2055.3786012772
3	14	13	2056.6666253371
3	15	14	2057.9358571049
3	17	15	2059.2157946995
3	36	16	2060.5038312709
3	75	17	2061.7921504799
3	208	18	2063.0764526734
3	209	19	2064.3567868696
3	210	20	2065.6452022844
3	211	21	2066.9208721098
3	212	22	2068.2065065457
3	213	23	2069.4949137465
3	214	24	2070.775607846
3	215	25	2072.0692857738
3	216	26	2073.3479545597
3	217	27	2074.629907494
3	218	28	2075.912833198
3	219	29	2077.1948095947
3	220	30	2078.4827743668
3	221	31	2079.7654872245
3	222	32	2081.0523583494
3	223	33	2082.3361264618
3	224	34	2083.6110226592
3	225	35	2084.9039061201
3	226	36	2086.1918944942
3	227	37	2087.4670912529
3	228	38	2088.7445638519
3	229	39	2090.0251341304
3	230	40	2091.3038271267
3	231	41	2092.5838984526
3	232	42	2093.8745429492
3	233	43	2095.1551858336
3	234	44	2096.4577268359
3	235	45	2097.754606929
3	236	46	2099.0428357375
3	237	47	2100.3413853953
3	238	48	2101.6253231371
3	239	49	2102.9100778577
3	240	50	2104.205562748
3	241	51	2105.4871808367
3	242	52	2106.7735110331
3	243	53	2108.0660212386
3	244	54	2109.3526858971
3	246	55	2110.6310652101
3	267	56	2111.9190442443
3	268	57	2113.2064705813
3	269	58	2114.4917550431
3	270	59	2115.7758740958
3	271	60	2117.0745357696
3	272	61	2118.3668343934
3	273	62	2119.6691206551
3	274	63	2120.9442595867
3	275	64	2122.2351250243
3	276	65	2123.5255669757
3	277	66	2124.8137603397
3	278	67	2126.1052060316
3	279	68	2127.3966099007
3	280	69	2128.6785173834
3	281	70	2129.9770081994
3	282	71	2131.2595474646
3	283	72	2132.5440453581
3	284	73	2133.8288146506
3	285	74	2135.1211529758
3	286	75	2136.420651131
3	287	76	2137.7033370983
3	288	77	2138.9893840498
3	289	78	2139.357370314
3	290	79	2139.357370314
3	291	80	2139.357370314
3	292	81	2139.357370314
3	293	82	2139.357370314
3	294	83	2139.357370314
3	295	84	2140.0773537201
3	296	85	2141.3767751314
3	297	86	2142.6665533881
3	298	87	2143.9555645357
3	299	88	2145.252582724
3	300	89	2146.5378230709
3	301	90	2147.8164575496
3	302	91	2149.1141884683
3	303	92	2150.4129682111
3	304	93	2151.7020448182
3	305	94	2153.0093288829
3	307	95	2154.3004666159
3	324	96	2155.5910211281
3	325	97	2156.8912150294
3	326	98	2158.1828196052
3	327	99	2159.4807050562
3	328	100	2160.7653782635
3	330	101	2162.0425867986
3	331	102	2163.3381528162
3	367	103	2164.6224653997
3	400	104	2165.9230520259
3	499	105	2167.2226849515
3	500	106	2168.5271253263
3	501	107	2169.8205606043
3	502	108	2171.1074298169
3	503	109	2172.4021084969
3	504	110	2173.7070542444
3	505	111	2174.9940617781
3	506	112	2176.2999607332
3	507	113	2177.6000813896
3	508	114	2178.9018473915
3	509	115	2180.191242691
3	510	116	2181.4869738655
3	511	117	2182.7931708805
3	512	118	2184.0902303094
3	513	119	2185.3891526548
3	514	120	2186.6818655085
3	515	121	2187.9748027214
3	516	122	2189.2758607317
3	517	123	2190.5724797637
3	518	124	2191.8689477713
3	519	125	2193.1562837746
3	520	126	2194.4463339215
3	521	127	2195.7422030781
3	522	128	2197.0338327147
3	523	129	2198.3379627959
3	524	130	2199.6298998348
3	525	131	2200.9172235592
3	526	132	2202.2087689053
3	527	133	2203.5100898442
3	528	134	2204.8013220654
3	530	135	2206.0949851075
3	543	136	2207.3873509989
3	544	137	2208.6886589411
3	545	138	2209.9843269321
3	546	139	2211.2825681631
3	547	140	2212.5713785119
3	548	141	2213.8734067059
3	549	142	2215.1724244758
3	550	143	2216.4720411764
3	551	144	2217.7685750262
3	552	145	2219.0707936932
3	553	146	2220.3811281738
3	554	147	2221.6837400169
3	555	148	2222.9933016643
3	556	149	2224.3007021355
3	557	150	2225.6097298778
3	558	151	2226.9244005416
3	559	152	2228.22902368
3	560	153	2229.5484123996
3	561	154	2230.8569284687
3	562	155	2232.1640145736
3	563	156	2233.485128942
3	564	157	2234.8297294968
3	565	158	2236.1670066806
3	566	159	2237.5171196476
3	567	160	2238.8646841051
3	568	161	2240.2017875987
3	569	162	2241.5565440542
3	570	163	2242.8866609401
3	571	164	2244.2226371146
3	572	165	2245.5527404449
3	573	166	2246.8870260934
3	574	167	2247.9920962735
3	575	168	2248.9117526502
3	576	169	2249.8397306313
3	577	170	2250.453768131
3	578	171	2250.8763621817
3	579	172	2251.2953710421
3	580	173	2251.717492023
3	581	174	2252.1373827583
3	583	175	2252.5585641828
3	596	176	2252.979856084
3	597	177	2253.3997969752
3	598	178	2253.8198442164
3	599	179	2254.2406196501
3	600	180	2254.6641658636
3	601	181	2255.0856730098
3	602	182	2255.5053055421
3	603	183	2255.9257348475
3	604	184	2256.345537936
3	605	185	2256.7673774449
3	606	186	2257.1884828768
3	607	187	2257.6072247831
3	608	188	2258.028940292
3	609	189	2258.4482564119
3	610	190	2258.8652043037
3	611	191	2259.2847298398
3	612	192	2259.7047992501
3	613	193	2260.1279599733
3	614	194	2260.5492468362
3	615	195	2260.9703751898
3	616	196	2261.3892038641
3	617	197	2261.8100096096
3	618	198	2262.2254057128
3	619	199	2262.646055114
3	620	200	2263.0651997428
3	621	201	2263.4854548632
3	622	202	2263.9085600509
3	623	203	2264.3315590956
3	624	204	2264.7479207539
3	625	205	2265.1727568712
3	626	206	2265.5915751836
3	627	207	2266.0102879554
3	628	208	2266.4303957358
3	629	209	2266.7950973425
3	630	210	2266.9797102041
3	631	211	2267.058348555
3	632	212	2267.0992077955
3	633	213	2267.0992077955
3	634	214	2267.0992077955
3	636	215	2267.0992077955
3	651	216	2267.0992077955
3	652	217	2267.0992077955
3	653	218	2267.0992077955
3	654	219	2267.0992077955
3	655	220	2267.0992077955
3	656	221	2267.0992077955
3	657	222	2267.0992077955
3	658	223	2267.0992077955
3	659	224	2267.0992077955
3	660	225	2267.0992077955
3	661	226	2267.0992077955
3	662	227	2267.0992077955
3	663	228	2267.0992077955
3	665	229	2267.0992077955
3	666	230	2267.0992077955
3	707	231	2267.0992077955
4	4	3	2334.0525058916
4	5	4	2334.0525058916
4	6	5	2333.6929094656
4	7	6	2333.2747875563
4	8	7	2332.8566892883
4	9	8	2332.4389943161
4	10	9	2332.0220469793
4	11	10	2331.6039372319
4	12	11	2331.1867879253
4	13	12	2330.7674879709
4	14	13	2330.3473004489
4	15	14	2329.9332434698
4	17	15	2329.5156939668
4	36	16	2329.0955023633
4	75	17	2328.6752185559
4	208	18	2328.2562452053
4	209	19	2327.8385663203
4	210	20	2327.4182511281
4	211	21	2327.0020938843
4	212	22	2326.5826859209
4	213	23	2326.1623734083
4	214	24	2325.7445771134
4	215	25	2325.3225451502
4	216	26	2324.9054095661
4	217	27	2324.487202606
4	218	28	2324.0686783026
4	219	29	2323.6504636884
4	220	30	2323.2302955077
4	221	31	2322.8118406405
4	222	32	2322.3920292365
4	223	33	2321.9732301172
4	224	34	2321.5573252513
4	225	35	2321.1355524642
4	226	36	2320.715376584
4	227	37	2320.299373667
4	228	38	2319.8826283108
4	229	39	2319.4648724096
4	230	40	2319.0477289274
4	231	41	2318.6301357977
4	232	42	2318.2095274426
4	233	43	2317.7927501725
4	234	44	2317.368846296
4	235	45	2316.9467847272
4	236	46	2316.5281798393
4	237	47	2316.1068502746
4	238	48	2315.6902617162
4	239	49	2315.2734080796
4	240	50	2314.8530729143
4	241	51	2314.4372369944
4	242	52	2314.0198721763
4	243	53	2313.6005021822
4	244	54	2313.183028844
4	246	55	2312.7682437826
4	267	56	2312.3503439798
4	268	57	2311.932623506
4	269	58	2311.5155979887
4	270	59	2311.0989506019
4	271	60	2310.6775846922
4	272	61	2310.2582833483
4	273	62	2309.8357413989
4	274	63	2309.422007717
4	275	64	2309.003171387
4	276	65	2308.584472462
4	277	66	2308.1665031175
4	278	67	2307.7474785172
4	279	68	2307.3284674868
4	280	69	2306.9125376697
4	281	70	2306.4912271969
4	282	71	2306.0750923905
4	283	72	2305.6583220844
4	284	73	2305.2414637197
4	285	74	2304.8221494942
4	286	75	2304.4005121784
4	287	76	2303.9843297728
4	288	77	2303.5670568568
4	289	78	2303.4476594263
4	290	79	2303.4476594263
4	291	80	2303.4476594263
4	292	81	2303.4476594263
4	293	82	2303.4476594263
4	294	83	2303.4476594263
4	295	84	2303.2188109942
4	296	85	2302.8145018554
4	297	86	2302.4131931409
4	298	87	2302.0121231089
4	299	88	2301.6085617221
4	300	89	2301.2086649578
4	301	90	2300.8108235798
4	302	91	2300.4070404302
4	303	92	2300.0029309436
4	304	93	2299.6018405442
4	305	94	2299.1950849761
4	307	95	2298.7933532666
4	324	96	2298.3918030236
4	325	97	2297.987253528
4	326	98	2297.5853765625
4	327	99	2297.1815453308
4	328	100	2296.7818250295
4	330	101	2296.3844273274
4	331	102	2295.981317777
4	367	103	2295.5817096821
4	400	104	2295.1813682282
4	499	105	2294.7924944104
4	500	106	2294.4021821163
4	501	107	2294.0151627474
4	502	108	2293.6301080647
4	503	109	2293.2427166473
4	504	110	2292.8522531365
4	505	111	2292.4671570657
4	506	112	2292.0764083378
4	507	113	2291.6873885821
4	508	114	2291.297876509
4	509	115	2290.9120659752
4	510	116	2290.5243596323
4	511	117	2290.1335217195
4	512	118	2289.7454179387
4	513	119	2289.3567567394
4	514	120	2288.969953533
4	515	121	2288.5830831942
4	516	122	2288.1937829651
4	517	123	2287.8058109591
4	518	124	2287.4178841424
4	519	125	2287.0326897874
4	520	126	2286.6466833113
4	521	127	2286.2589356817
4	522	128	2285.8724565935
4	523	129	2285.4822371449
4	524	130	2285.0956660764
4	525	131	2284.7104753956
4	526	132	2284.3240215287
4	527	133	2283.9346426266
4	528	134	2283.5482824524
4	530	135	2283.1611949323
4	543	136	2282.7744955433
4	544	137	2282.38512053
4	545	138	2281.9974330928
4	546	139	2281.6089756953
4	547	140	2281.2233401894
4	548	141	2280.8337496637
4	549	142	2280.4450599116
4	550	143	2280.0561909486
4	551	144	2279.6682444307
4	552	145	2279.278596912
4	553	146	2278.8865209942
4	554	147	2278.4967558301
4	555	148	2278.1589046454
4	556	149	2277.8289144828
4	557	150	2277.4985135942
4	558	151	2277.1666884223
4	559	152	2276.8373992633
4	560	153	2276.5043832459
4	561	154	2276.1741115044
4	562	155	2275.8442006884
4	563	156	2275.5385221071
4	564	157	2275.3905215776
4	565	158	2275.2433271335
4	566	159	2275.0947198514
4	567	160	2274.9463930844
4	568	161	2274.7992177585
4	569	162	2274.6500993664
4	570	163	2274.8054777182
4	571	164	2275.0399841744
4	572	165	2275.2734597589
4	573	166	2275.5076694738
4	574	167	2276.1722575253
4	575	168	2277.1626567002
4	576	169	2278.1620176029
4	577	170	2279.3269345045
4	578	171	2280.6207451107
4	579	172	2281.9035793264
4	580	173	2283.1959415858
4	581	174	2284.4814757429
4	583	175	2285.7709614639
4	596	176	2287.0607854194
4	597	177	2288.3464731333
4	598	178	2289.6324864475
4	599	179	2290.9207291903
4	600	180	2292.2174549304
4	601	181	2293.5079378783
4	602	182	2294.7926815231
4	603	183	2296.0798645623
4	604	184	2297.3651303804
4	605	185	2298.6566308872
4	606	186	2299.9458839499
4	607	187	2301.2279008611
4	608	188	2302.5190217307
4	609	189	2303.8027966498
4	610	190	2305.0793210205
4	611	191	2306.3637370866
4	612	192	2307.6498182736
4	613	193	2308.9453637997
4	614	194	2310.2351723301
4	615	195	2311.5244955694
4	616	196	2312.8067781289
4	617	197	2314.095113674
4	618	198	2315.3668871008
4	619	199	2316.6547439837
4	620	200	2317.9379938668
4	621	201	2319.2246436223
4	622	202	2320.5200191216
4	623	203	2321.8150696541
4	624	204	2323.0897992168
4	625	205	2324.3904741164
4	626	206	2325.6727249521
4	627	207	2326.9546526653
4	628	208	2328.2408513261
4	629	209	2329.3574188831
4	630	210	2329.9226281613
4	631	211	2330.163386715
4	632	212	2330.2884810427
4	633	213	2330.2884810427
4	634	214	2330.2884810427
4	636	215	2330.2884810427
4	651	216	2330.2884810427
4	652	217	2330.2884810427
4	653	218	2330.2884810427
4	654	219	2330.2884810427
4	655	220	2330.2884810427
4	656	221	2330.2884810427
4	657	222	2330.2884810427
4	658	223	2330.2884810427
4	659	224	2330.2884810427
4	660	225	2330.2884810427
4	661	226	2330.2884810427
4	662	227	2330.2884810427
4	663	228	2330.2884810427
4	665	229	2330.2884810427
4	666	230	2330.2884810427
4	707	231	2330.2884810427
5	4	3	2456.1131246374
5	5	4	2456.1131246374
5	6	5	2454.8228984375
5	7	6	2453.5263853338
5	8	7	2452.244543843
5	9	8	2450.9664679368
5	10	9	2449.67579416
5	11	10	2448.3927706581
5	12	11	2447.0973750106
5	13	12	2445.8172103211
5	14	13	2444.5210288415
5	15	14	2443.228378189
5	17	15	2441.9359673452
5	36	16	2440.6439736414
5	75	17	2439.3530680286
5	208	18	2438.0504695288
5	209	19	2436.7609541254
5	210	20	2435.4656219992
5	211	21	2434.1692311386
5	212	22	2432.8769131
5	213	23	2431.5686364088
5	214	24	2430.2790322419
5	215	25	2428.9887400808
5	216	26	2427.7015084425
5	217	27	2426.413574165
5	218	28	2425.1331384252
5	219	29	2423.8423447594
5	220	30	2422.5499850228
5	221	31	2421.2604916997
5	222	32	2419.9592072694
5	223	33	2418.6644237452
5	224	34	2417.3761729548
5	225	35	2416.086124628
5	226	36	2414.7879754762
5	227	37	2413.4868106124
5	228	38	2412.1867032305
5	229	39	2410.8942491736
5	230	40	2409.6030383134
5	231	41	2408.305977851
5	232	42	2407.0036018156
5	233	43	2405.7151690447
5	234	44	2404.4301750248
5	235	45	2403.1300606529
5	236	46	2401.8257928135
5	237	47	2400.535719455
5	238	48	2399.2411097231
5	239	49	2397.9327881763
5	240	50	2396.6502269083
5	241	51	2395.370122859
5	242	52	2394.0783935433
5	243	53	2392.7799241115
5	244	54	2391.489394752
5	246	55	2390.2072814174
5	267	56	2388.9289994272
5	268	57	2387.6305991734
5	269	58	2386.3461623775
5	270	59	2385.0499082429
5	271	60	2383.7462408017
5	272	61	2382.4492321965
5	273	62	2381.1630778408
5	274	63	2379.8767376748
5	275	64	2378.5959842117
5	276	65	2377.3066374624
5	277	66	2376.0132577963
5	278	67	2374.7286131443
5	279	68	2373.4401990067
5	280	69	2372.1494351029
5	281	70	2370.8575510671
5	282	71	2369.5646474959
5	283	72	2368.2774124752
5	284	73	2366.9762583394
5	285	74	2365.6942613788
5	286	75	2364.4022749033
5	287	76	2363.1015645312
5	288	77	2361.8144273307
5	289	78	2360.5171158173
5	290	79	2359.2232318306
5	291	80	2357.9267221794
5	292	81	2356.6345207131
5	293	82	2355.3386015207
5	294	83	2354.0517514297
5	295	84	2352.7576319309
5	296	85	2351.4640638604
5	297	86	2350.1848624654
5	298	87	2348.8989829625
5	299	88	2347.612692845
5	300	89	2346.3271754451
5	301	90	2345.0359745208
5	302	91	2343.7422064914
5	303	92	2342.4493800742
5	304	93	2341.155935867
5	305	94	2339.8712150922
5	307	95	2338.5881279711
5	324	96	2337.2993255884
5	325	97	2336.008033326
5	326	98	2334.726909894
5	327	99	2333.4371624771
5	328	100	2332.1490003066
5	330	101	2330.8557264363
5	331	102	2329.5721726496
5	367	103	2328.2746640225
5	400	104	2326.9783253543
5	499	105	2325.6882174533
5	500	106	2324.3885250794
5	501	107	2323.0949465937
5	502	108	2321.813821952
5	503	109	2320.5311262662
5	504	110	2319.2376444392
5	505	111	2317.9463800764
5	506	112	2316.6627899924
5	507	113	2315.379228054
5	508	114	2314.0982822439
5	509	115	2312.8006298051
5	510	116	2311.5067206145
5	511	117	2310.2258942162
5	512	118	2308.9359355723
5	513	119	2307.6449832299
5	514	120	2306.3565052888
5	515	121	2305.0633713529
5	516	122	2303.7621964386
5	517	123	2302.4752354851
5	518	124	2301.1793615604
5	519	125	2299.8899823954
5	520	126	2298.5837871612
5	521	127	2297.2827602372
5	522	128	2295.9901942807
5	523	129	2294.7076043391
5	524	130	2293.406614117
5	525	131	2292.1159766614
5	526	132	2290.8170463216
5	527	133	2289.5321509435
5	528	134	2288.2998075803
5	530	135	2287.5951001956
5	543	136	2287.2847344065
5	544	137	2287.1027036561
5	545	138	2287.1025105621
5	546	139	2287.1025105621
5	547	140	2287.1025105621
5	548	141	2287.1025105621
5	549	142	2287.1025105621
5	550	143	2287.1025105621
5	551	144	2287.1025105621
5	552	145	2287.1025105621
5	553	146	2287.1025105621
5	554	147	2287.1025105621
5	555	148	2287.1025105621
5	556	149	2287.1025105621
5	557	150	2286.328047315
5	558	151	2284.9989271439
5	559	152	2283.6665666372
5	560	153	2282.3275877324
5	561	154	2281.0022558571
5	562	155	2279.678597968
5	563	156	2278.342246036
5	564	157	2277.014003361
5	565	158	2275.7678428532
5	566	159	2274.6881688922
5	567	160	2273.6200420492
5	568	161	2272.629778076
5	569	162	2272.0077072603
5	570	163	2271.385837883
5	571	164	2270.7655917394
5	572	165	2270.2423991072
5	573	166	2269.8270716858
5	574	167	2269.4064579718
5	575	168	2268.9877611149
5	576	169	2268.5689552266
5	577	170	2268.1497962943
5	578	171	2267.7291995687
5	579	172	2267.3056284178
5	580	173	2266.8836674468
5	581	174	2266.4623610648
5	583	175	2266.0448150923
5	596	176	2265.627747588
5	597	177	2265.2080655988
5	598	178	2264.7878435468
5	599	179	2264.3675761709
5	600	180	2263.9467637305
5	601	181	2263.5248188896
5	602	182	2263.1051405807
5	603	183	2262.6829494878
5	604	184	2262.2613949195
5	605	185	2261.8423785679
5	606	186	2261.4241273968
5	607	187	2261.000899983
5	608	188	2260.580610268
5	609	189	2260.162109054
5	610	190	2259.7424619189
5	611	191	2259.3201194397
5	612	192	2258.9005533927
5	613	193	2258.4802246899
5	614	194	2258.059745617
5	615	195	2257.6406796564
5	616	196	2257.2241821165
5	617	197	2256.8054467855
5	618	198	2256.3800803507
5	619	199	2255.9574885479
5	620	200	2255.5344432252
5	621	201	2255.1142664069
5	622	202	2254.7215034357
5	623	203	2254.507820234
5	624	204	2254.4156150245
5	625	205	2254.3607403908
5	626	206	2254.3607403908
5	627	207	2254.3607403908
5	628	208	2254.3607403908
5	629	209	2254.3607403908
5	630	210	2254.3607403908
5	631	211	2254.3607403908
5	632	212	2254.3607403908
5	633	213	2254.3607403908
5	634	214	2254.3607403908
5	636	215	2254.3607403908
5	651	216	2254.3607403908
5	652	217	2254.3607403908
5	653	218	2254.3607403908
5	654	219	2254.3607403908
5	655	220	2254.3607403908
5	656	221	2254.3607403908
5	657	222	2254.3607403908
5	658	223	2254.3607403908
5	659	224	2254.3607403908
5	660	225	2254.3607403908
5	661	226	2254.3607403908
5	662	227	2254.3607403908
5	663	228	2254.3607403908
5	665	229	2254.3607403908
5	666	230	2254.3607403908
5	707	231	2254.3607403908
6	4	3	2283.1094638243
6	5	4	2283.1094638243
6	6	5	2283.5230969591
6	7	6	2283.9399548468
6	8	7	2284.3520954835
6	9	8	2284.7630254009
6	10	9	2285.1780058147
6	11	10	2285.5905264944
6	12	11	2286.000783291
6	13	12	2286.4055705683
6	14	13	2286.8154223445
6	15	14	2287.2241576754
6	17	15	2287.632817179
6	36	16	2288.0413447832
6	75	17	2288.4495283336
6	208	18	2288.8614091677
6	209	19	2289.2691531348
6	210	20	2289.6787363461
6	211	21	2290.0886543284
6	212	22	2290.4972844871
6	213	23	2290.9109607617
6	214	24	2291.3187327958
6	215	25	2291.7267223732
6	216	26	2292.1337442152
6	217	27	2292.5409882313
6	218	28	2292.9458612145
6	219	29	2293.3540093673
6	220	30	2293.7626527109
6	221	31	2294.1703896962
6	222	32	2294.5818550223
6	223	33	2294.9912647659
6	224	34	2295.3986088632
6	225	35	2295.8065213404
6	226	36	2296.2169952933
6	227	37	2296.6284228126
6	228	38	2297.0395159567
6	229	39	2297.4481891242
6	230	40	2297.8564691937
6	231	41	2298.2665989038
6	232	42	2298.6784093948
6	233	43	2299.0858110342
6	234	44	2299.4921253426
6	235	45	2299.903220697
6	236	46	2300.3156293752
6	237	47	2300.7235497674
6	238	48	2301.132904558
6	239	49	2301.5465950159
6	240	50	2301.9521400897
6	241	51	2302.3569081926
6	242	52	2302.7653521974
6	243	53	2303.1759274227
6	244	54	2303.5839920021
6	246	55	2303.9893954397
6	267	56	2304.3935874085
6	268	57	2304.8041407598
6	269	58	2305.2102788744
6	270	59	2305.6201536241
6	271	60	2306.0327836805
6	272	61	2306.4445443926
6	273	62	2306.8528592113
6	274	63	2307.2612330191
6	275	64	2307.6678332189
6	276	65	2308.0771615253
6	277	66	2308.4877701599
6	278	67	2308.8956056936
6	279	68	2309.3046379242
6	280	69	2309.7144161339
6	281	70	2310.1245499514
6	282	71	2310.5350074404
6	283	72	2310.9436653372
6	284	73	2311.356742129
6	285	74	2311.7679030045
6	286	75	2312.1827670034
6	287	76	2312.6004322937
6	288	77	2313.0137391636
6	289	78	2313.4303130617
6	290	79	2313.8457863619
6	291	80	2314.2621027776
6	292	81	2314.6770358112
6	293	82	2315.0931626273
6	294	83	2315.5063773047
6	295	84	2315.9219262292
6	296	85	2316.337298087
6	297	86	2316.7480567259
6	298	87	2317.1609597422
6	299	88	2317.5739946091
6	300	89	2317.9838067263
6	301	90	2318.392151043
6	302	91	2318.8013072107
6	303	92	2319.210165592
6	304	93	2319.6192193504
6	305	94	2320.0255143097
6	307	95	2320.4312926234
6	324	96	2320.8388783975
6	325	97	2321.2472516
6	326	98	2321.652408894
6	327	99	2322.0602935366
6	328	100	2322.4676768426
6	330	101	2322.8766767318
6	331	102	2323.2826026292
6	367	103	2323.6929417668
6	400	104	2324.102910903
6	499	105	2324.5109095494
6	500	106	2324.9219393003
6	501	107	2325.3310355245
6	502	108	2325.736193201
6	503	109	2326.1418477227
6	504	110	2326.5509133784
6	505	111	2326.9592777576
6	506	112	2327.3652151341
6	507	113	2327.7711436095
6	508	114	2328.1762447303
6	509	115	2328.5866293485
6	510	116	2328.9958301587
6	511	117	2329.4008935152
6	512	118	2329.8088449588
6	513	119	2330.217110661
6	514	120	2330.62459383
6	515	121	2331.0335494646
6	516	122	2331.4450480713
6	517	123	2331.8520514905
6	518	124	2332.261873651
6	519	125	2332.6696418334
6	520	126	2333.0827281241
6	521	127	2333.4941799286
6	522	128	2333.9029559388
6	523	129	2334.3085770187
6	524	130	2334.7200172162
6	525	131	2335.128183335
6	526	132	2335.5411757876
6	527	133	2335.956573691
6	528	134	2336.3549818867
6	530	135	2336.5828089729
6	543	136	2336.6831481136
6	544	137	2336.7419974124
6	545	138	2336.7420598384
6	546	139	2336.7420598384
6	547	140	2336.7420598384
6	548	141	2336.7420598384
6	549	142	2336.7420598384
6	550	143	2336.7420598384
6	551	144	2336.7420598384
6	552	145	2336.7420598384
6	553	146	2336.7420598384
6	554	147	2336.7420598384
6	555	148	2336.7420598384
6	556	149	2336.7420598384
6	557	150	2336.9924385186
6	558	151	2337.2698445455
6	559	152	2337.524313399
6	560	153	2337.780046307
6	561	154	2338.0331727552
6	562	155	2337.9488579406
6	563	156	2337.7151461677
6	564	157	2337.4828526057
6	565	158	2337.0423741225
6	566	159	2336.20793584
6	567	160	2335.3824218787
6	568	161	2334.4768740082
6	569	162	2333.2705975569
6	570	163	2332.064711721
6	571	164	2330.8619735468
6	572	165	2329.6141589728
6	573	166	2328.3420921205
6	574	167	2327.0538343856
6	575	168	2325.7714476099
6	576	169	2324.4887268922
6	577	170	2323.2049248696
6	578	171	2321.9167191669
6	579	172	2320.6194033797
6	580	173	2319.3270192593
6	581	174	2318.0366400172
6	583	175	2316.757778176
6	596	176	2315.4803817893
6	597	177	2314.1949777455
6	598	178	2312.9079195949
6	599	179	2311.620722626
6	600	180	2310.3318562308
6	601	181	2309.0395215137
6	602	182	2307.754128742
6	603	183	2306.4610398032
6	604	184	2305.1699004151
6	605	185	2303.8865350895
6	606	186	2302.6055133623
6	607	187	2301.3092503748
6	608	188	2300.0219849856
6	609	189	2298.7401974256
6	610	190	2297.4549001332
6	611	191	2296.1613475279
6	612	192	2294.8762985925
6	613	193	2293.5889137912
6	614	194	2292.3010684356
6	615	195	2291.0175511671
6	616	196	2289.7419004703
6	617	197	2288.4593958557
6	618	198	2287.1565814643
6	619	199	2285.8622652293
6	620	200	2284.5665599514
6	621	201	2283.2796403425
6	622	202	2282.0766839984
6	623	203	2281.4222140459
6	624	204	2281.1398074806
6	625	205	2280.9717371847
6	626	206	2280.9717371847
6	627	207	2280.9717371847
6	628	208	2280.9717371847
6	629	209	2280.9717371847
6	630	210	2280.9717371847
6	631	211	2280.9717371847
6	632	212	2280.9717371847
6	633	213	2280.9717371847
6	634	214	2280.9717371847
6	636	215	2280.9717371847
6	651	216	2280.9717371847
6	652	217	2280.9717371847
6	653	218	2280.9717371847
6	654	219	2280.9717371847
6	655	220	2280.9717371847
6	656	221	2280.9717371847
6	657	222	2280.9717371847
6	658	223	2280.9717371847
6	659	224	2280.9717371847
6	660	225	2280.9717371847
6	661	226	2280.9717371847
6	662	227	2280.9717371847
6	663	228	2280.9717371847
6	665	229	2280.9717371847
6	666	230	2280.9717371847
6	707	231	2280.9717371847
13	5	4	1.3862204565602
13	6	5	1.3582145193424
13	7	6	1.3493320552516
13	8	7	1.35591197767
13	9	8	1.3260661288708
13	10	9	1.3281546554127
13	11	10	1.3277080167609
13	12	11	1.3572132102531
13	13	12	1.338744398559
13	14	13	1.3547035944551
13	15	14	1.3603213600517
13	17	15	1.3524588461183
13	36	16	1.3558826774695
13	75	17	1.3882106644451
13	208	18	1.3516476015664
13	209	19	1.3444427670038
13	210	20	1.3804819529792
13	211	21	1.3871791696874
13	212	22	1.3695990504736
13	213	23	1.3871855972037
13	214	24	1.3339694330999
13	215	25	1.3680535475335
13	216	26	1.3767598342383
13	217	27	1.3270976628701
13	218	28	1.3543210483234
13	219	29	1.3435124196985
13	220	30	1.3629711141079
13	221	31	1.3278907990995
13	222	32	1.3680275222578
13	223	33	1.3684668984529
13	224	34	1.3861116107243
13	225	35	1.3241393095814
13	226	36	1.3271486147682
13	227	37	1.3578557667723
13	228	38	1.3325806518939
13	229	39	1.3314679442879
13	230	40	1.3737734137976
13	231	41	1.363399566536
13	232	42	1.348057838671
13	233	43	1.3795868825724
13	234	44	1.3659305190635
13	235	45	1.3266728340144
13	236	46	1.380706962793
13	237	47	1.3749238876982
13	238	48	1.3396041292678
13	239	49	1.3375341826435
13	240	50	1.3789216272481
13	241	51	1.3624586546212
13	242	52	1.3728954453189
13	243	53	1.3707700661487
13	244	54	1.3249264168391
13	246	55	1.3284827727896
13	267	56	1.3888390999475
13	268	57	1.3372547761375
13	269	58	1.3436481207545
13	270	59	1.3837795871465
13	271	60	1.3504642192533
13	272	61	1.3750083968625
13	273	62	1.3221574972461
13	274	63	1.3738916970518
13	275	64	1.3341924723095
13	276	65	1.3869481736361
13	277	66	1.3659741048953
13	278	67	1.3232416731706
13	279	68	1.3586620726467
13	280	69	1.3766803458889
13	281	70	1.3765738089731
13	282	71	1.3294802943063
13	283	72	1.3414243443953
13	284	73	1.3537865961553
13	285	74	1.3480876074431
13	286	75	1.3392475620074
13	287	76	1.3447698677515
13	288	77	0
13	289	78	0
13	290	79	0
13	291	80	0
13	292	81	0
13	293	82	0
13	294	83	1.2792264513398
13	295	84	1.3791029828846
13	296	85	1.3356598697202
13	297	86	1.319499444556
13	298	87	1.3521406754929
13	299	88	1.3517755535819
13	300	89	1.3387395300055
13	301	90	1.3840406730338
13	302	91	1.3803347469042
13	303	92	1.3480910745824
13	304	93	1.386833276079
13	305	94	1.3777091764981
13	307	95	1.3297692055898
13	324	96	1.3756109584453
13	325	97	1.3402636272238
13	326	98	1.3817185264715
13	327	99	1.387892420187
13	328	100	1.3219430287265
13	330	101	1.3486055371565
13	331	102	1.3480415429674
13	367	103	1.3765474591896
13	400	104	1.3587260344421
13	499	105	1.3810754892054
13	500	106	1.3759511446147
13	501	107	1.3219408910178
13	502	108	1.3813993276239
13	503	109	1.3487186427584
13	504	110	1.3438563643043
13	505	111	1.3782176009328
13	506	112	1.3820667928505
13	507	113	1.3574642392955
13	508	114	1.329752931132
13	509	115	1.3326637271287
13	510	116	1.3238289704249
13	511	117	1.3594090412436
13	512	118	1.3195931953992
13	513	119	1.3855501517214
13	514	120	1.345912011489
13	515	121	1.3588010536235
13	516	122	1.3435932688299
13	517	123	1.3382628120113
13	518	124	1.3599328334385
13	519	125	1.3378187943049
13	520	126	1.3247755668514
13	521	127	1.3255562175214
13	522	128	1.3888254920312
13	523	129	1.3860716586674
13	524	130	1.3222342254368
13	525	131	1.3672593777624
13	526	132	1.3655783157931
13	527	133	1.3359782420513
13	528	134	1.3389184205153
13	530	135	1.341359788429
13	543	136	1.3329543259331
13	544	137	1.3833916906959
13	545	138	1.3413293604228
13	546	139	1.3654570762689
13	547	140	1.3439934279692
13	548	141	1.3346734497787
13	549	142	1.3662518363142
13	550	143	1.3585855926794
13	551	144	1.3384717547322
13	552	145	1.3648247805799
13	553	146	1.346433273494
13	554	147	1.345271209187
13	555	148	1.343313645856
13	556	149	1.3559938382403
13	557	150	1.3850032637129
13	558	151	1.3752877310132
13	559	152	1.3682838462895
13	560	153	1.3353024450609
13	561	154	1.3621201650595
13	562	155	1.3304578306108
13	563	156	1.3376044493473
13	564	157	1.3559119792545
13	565	158	1.331844423904
13	566	159	1.3673463561119
13	567	160	1.3829013446715
13	568	161	1.35406001319
13	569	162	1.3730936041166
13	570	163	1.3659161605432
13	571	164	1.3806790708461
13	572	165	1.3490320543416
13	573	166	1.3416737066776
13	574	167	1.3300985989432
13	575	168	1.3571811524485
13	576	169	1.3339693581414
13	577	170	1.3245020245085
13	578	171	1.3303192296007
13	579	172	1.3691931146443
13	580	173	1.3269934719331
13	581	174	1.3230293850292
13	583	175	1.3776748865752
13	596	176	1.3528067155049
13	597	177	1.3303631003752
13	598	178	1.3623985914455
13	599	179	1.3872299760988
13	600	180	1.3792698400438
13	601	181	1.3859396386963
13	602	182	1.3234606611271
13	603	183	1.3461158605221
13	604	184	1.3286694087664
13	605	185	1.353773384811
13	606	186	1.3427746266178
13	607	187	1.335176467999
13	608	188	1.3198871867886
13	609	189	1.3795418532067
13	610	190	1.3584432828712
13	611	191	1.3251269632504
13	612	192	1.3811369237212
13	613	193	1.3494063851249
13	614	194	1.3788026296728
13	615	195	1.3393814242833
13	616	196	1.3224594795287
13	617	197	1.329834332072
13	618	198	1.3505145113029
13	619	199	1.3449366129256
13	620	200	1.3860215866427
13	621	201	1.3224688686993
13	622	202	1.3842965928133
13	623	203	1.3313549754417
13	624	204	1.3865884623859
13	625	205	1.3661242159853
13	626	206	1.3310007219196
13	627	207	1.3724727337184
13	628	208	0.86347639127764
13	629	209	0.38470999324807
13	630	210	0.19859876074363
13	631	211	0
13	632	212	0
13	633	213	0
13	634	214	0
13	636	215	0
13	651	216	0
13	652	217	0
13	653	218	0
13	654	219	0
13	655	220	0
13	656	221	0
13	657	222	0
13	658	223	0
13	659	224	0
13	660	225	0
13	661	226	0
13	662	227	0
13	663	228	0
13	665	229	0
13	666	230	0
13	707	231	0
14	5	4	1.363631196291
14	6	5	1.3375511401844
14	7	6	1.388562813744
14	8	7	1.3459160721525
14	9	8	1.3304763798725
14	10	9	1.3733385637008
14	11	10	1.3672363974426
14	12	11	1.3227228015118
14	13	12	1.3641935600673
14	14	13	1.3229639707101
14	15	14	1.3259336459709
14	17	15	1.3572124608294
14	36	16	1.3440576221425
14	75	17	1.3777403595547
14	208	18	1.3610236460388
14	209	19	1.35483990674
14	210	20	1.3682947037645
14	211	21	1.3367524399978
14	212	22	1.3673346648931
14	213	23	1.3630083976022
14	214	24	1.3868680549785
14	215	25	1.349806727489
14	216	26	1.3215123747391
14	217	27	1.349717753215
14	218	28	1.3826227095787
14	219	29	1.3254172767079
14	220	30	1.3388522555599
14	221	31	1.3283956576682
14	222	32	1.3331463793293
14	223	33	1.3387895758044
14	224	34	1.3871699250821
14	225	35	1.3646974479424
14	226	36	1.364082818036
14	227	37	1.3747172181482
14	228	38	1.3271794795583
14	229	39	1.3462195791201
14	230	40	1.3398568745955
14	231	41	1.3751903144455
14	232	42	1.3477166480637
14	233	43	1.3299760232136
14	234	44	1.370442183753
14	235	45	1.3813261290165
14	236	46	1.3683368168454
14	237	47	1.3195837497511
14	238	48	1.3871821510353
14	239	49	1.3404631772331
14	240	50	1.3674633364846
14	241	51	1.3719048882841
14	242	52	1.334172517349
14	243	53	1.3369428612835
14	244	54	1.3286726016021
14	246	55	1.3287406452421
14	267	56	1.3683408350658
14	268	57	1.3363689426559
14	269	58	1.3671117630697
14	270	59	1.371176126316
14	271	60	1.3553153473347
14	272	61	1.3686535543174
14	273	62	1.3452974356349
14	274	63	1.3531510497301
14	275	64	1.3530836635457
14	276	65	1.325057569128
14	277	66	1.3675324973883
14	278	67	1.3498565199714
14	279	68	1.3206301056198
14	280	69	1.3327743513219
14	281	70	1.3460984029451
14	282	71	1.3353053605533
14	283	72	1.3399491536418
14	284	73	1.3404355280444
14	285	74	1.3284652924469
14	286	75	1.3315499433116
14	287	76	1.3859382215176
14	288	77	1.3801971071937
14	289	78	1.3768615809709
14	290	79	1.3864430688005
14	291	80	1.3211962204756
14	292	81	1.3549692730238
14	293	82	1.3858428871026
14	294	83	1.3321649206369
14	295	84	1.3833008898817
14	296	85	1.3818005743087
14	297	86	1.3482873008858
14	298	87	1.3752158339937
14	299	88	1.3478620427001
14	300	89	1.385713312112
14	301	90	1.3801976432539
14	302	91	1.346868796633
14	303	92	1.3878080750065
14	304	93	1.3207843861245
14	305	94	1.3207592900209
14	307	95	1.3454386889417
14	324	96	1.3560909454504
14	325	97	1.3210666252417
14	326	98	1.3412173776467
14	327	99	1.3883023513255
14	328	100	1.3507145661182
14	330	101	1.3808214755166
14	331	102	1.3802025166094
14	367	103	1.3804748988575
14	400	104	1.3292534787292
14	499	105	1.3504885192702
14	500	106	1.3385160798336
14	501	107	1.350124934575
14	502	108	1.3760879422544
14	503	109	1.3505199965018
14	504	110	1.3404710772092
14	505	111	1.3721836878782
14	506	112	1.3231247633747
14	507	113	1.380897402592
14	508	114	1.3604568521906
14	509	115	1.3382090171055
14	510	116	1.326789093372
14	511	117	1.3242983279633
14	512	118	1.3647183086464
14	513	119	1.3240502459101
14	514	120	1.3263556336137
14	515	121	1.3727390814812
14	516	122	1.3274390037501
14	517	123	1.3559635768211
14	518	124	1.354001408569
14	519	125	1.357458001892
14	520	126	1.3475509358816
14	521	127	1.3202779376944
14	522	128	1.3203734499014
14	523	129	1.383624704047
14	524	130	1.3706820471756
14	525	131	1.3749266300066
14	526	132	1.369322676037
14	527	133	1.1057375298145
14	528	134	0.50321414483261
14	530	135	0.20933307865158
14	543	136	0.15201279275607
14	544	137	0
14	545	138	0
14	546	139	0
14	547	140	0
14	548	141	0
14	549	142	0
14	550	143	0
14	551	144	0
14	552	145	0
14	553	146	0
14	554	147	0
14	555	148	0
14	556	149	1.3888888888889
14	557	150	1.3573700927211
14	558	151	1.3322453778205
14	559	152	1.35542262082
14	560	153	1.3571327006017
14	561	154	1.372100659064
14	562	155	1.3743269345044
14	563	156	1.3758157506204
14	564	157	1.3607262637621
14	565	158	1.3589209915598
14	566	159	1.368552349676
14	567	160	1.3830063345894
14	568	161	1.3606895430712
14	569	162	1.3639763841153
14	570	163	1.3576163775643
14	571	164	1.3654096450126
14	572	165	1.3291794747056
14	573	166	1.3299271829601
14	574	167	1.3453431852556
14	575	168	1.3286863451584
14	576	169	1.3813277887433
14	577	170	1.3625311331351
14	578	171	1.3826342046377
14	579	172	1.3429314552761
14	580	173	1.3425864903871
14	581	174	1.3561434245397
14	583	175	1.3201272210992
14	596	176	1.3618686585364
14	597	177	1.3744912460809
14	598	178	1.3419981423875
14	599	179	1.3834644632556
14	600	180	1.3356029706807
14	601	181	1.3652557503277
14	602	182	1.3799672935824
14	603	183	1.3336796494453
14	604	184	1.3846881123027
14	605	185	1.3241764549619
14	606	186	1.3848184457877
14	607	187	1.323975006057
14	608	188	1.3290910271462
14	609	189	1.3761183729285
14	610	190	1.327889270243
14	611	191	1.3373189071394
14	612	192	1.3343988370454
14	613	193	1.3842689365265
14	614	194	1.3636234202163
14	615	195	1.3369594124702
14	616	196	1.3735987133987
14	617	197	1.3796890949986
14	618	198	1.347715433286
14	619	199	1.3440203099324
14	620	200	1.3568867408483
14	621	201	1.0037400361704
14	622	202	0.46467863177808
14	623	203	0.19205388282891
14	624	204	0.00096784678182981
14	625	205	0
14	626	206	0
14	627	207	0
14	628	208	0
14	629	209	0
14	630	210	0
14	631	211	0
14	632	212	0
14	633	213	0
14	634	214	0
14	636	215	0
14	651	216	0
14	652	217	0
14	653	218	0
14	654	219	0
14	655	220	0
14	656	221	0
14	657	222	0
14	658	223	0
14	659	224	0
14	660	225	0
14	661	226	0
14	662	227	0
14	663	228	0
14	665	229	0
14	666	230	0
14	707	231	0
17	6	5	-0.028005937217838
17	7	6	-0.0088824640907761
17	8	7	0.0065799224183947
17	9	8	-0.029845848799192
17	10	9	0.0020885265419364
17	11	10	-0.00044663865183892
17	12	11	0.029505193492191
17	13	12	-0.018468811694119
17	14	13	0.015959195896155
17	15	14	0.0056177655965763
17	17	15	-0.0078625139334085
17	36	16	0.0034238313512309
17	75	17	0.032327986975563
17	208	18	-0.036563062878688
17	209	19	-0.007204834562597
17	210	20	0.036039185975419
17	211	21	0.0066972167082391
17	212	22	-0.017580119213866
17	213	23	0.017586546730147
17	214	24	-0.053216164103813
17	215	25	0.034084114433628
17	216	26	0.0087062867047887
17	217	27	-0.049662171368254
17	218	28	0.027223385453302
17	219	29	-0.010808628624848
17	220	30	0.019458694409372
17	221	31	-0.035080315008397
17	222	32	0.04013672315826
17	223	33	0.00043937619516821
17	224	34	0.01764471227135
17	225	35	-0.061972301142911
17	226	36	0.0030093051868283
17	227	37	0.030707152004147
17	228	38	-0.025275114878443
17	229	39	-0.0011127076059994
17	230	40	0.042305469509706
17	231	41	-0.010373847261589
17	232	42	-0.015341727865032
17	233	43	0.031529043901375
17	234	44	-0.013656363508845
[...]
34	621	201	2315.30726318
34	622	202	2316.6008017908
34	623	203	2317.8881736693
34	624	204	2319.1764629672
34	625	205	2320.4737859986
34	626	206	2321.7640239793
34	627	207	2323.0519500602
34	628	208	2324.3276567205
34	629	209	2325.5753415027
34	630	210	2326.5346967224
34	631	211	2327.1321339062
34	632	212	2327.5502918331
34	633	213	2327.7067375089
34	634	214	2327.7067375089
34	636	215	2327.7067375089
34	651	216	2327.7067375089
34	652	217	2327.7067375089
34	653	218	2327.7067375089
34	654	219	2327.7067375089
34	655	220	2327.7067375089
34	656	221	2327.7067375089
34	657	222	2327.7067375089
34	658	223	2327.7067375089
34	659	224	2327.7067375089
34	660	225	2327.7067375089
34	661	226	2327.7067375089
34	662	227	2327.7067375089
34	663	228	2327.7067375089
34	665	229	2327.7067375089
34	666	230	2327.7067375089
34	707	231	2327.7067375089
35	525	131	-0.018587604823988
35	526	132	-0.057663252633064
35	527	133	-0.032452981411479
35	528	134	0.12082962916931
35	530	135	-0.12389212048147
35	543	136	0.10169772902736
35	544	137	-0.090957902101801
35	545	138	-0.0031906507979134
35	546	139	0.056377288470976
35	547	140	-0.039429939885158
35	548	141	0.012611295871901
35	549	142	0.057473568748684
35	550	143	-0.26079029846846
35	551	144	-2.976671064587
35	552	145	-2.499119296758
35	553	146	-1.9349450546335
35	554	147	-1.156066606681
35	555	148	-0.50626113460316
35	556	149	-0.01304627427191
35	557	150	0.18085968951613
35	558	151	0.32892049365222
35	559	152	0.0052684539714886
35	560	153	0.33042578290355
35	561	154	0.05839510108497
35	562	155	-0.01595188652516
35	563	156	0.039514193487125
35	564	157	0.014116479836825
35	565	158	0.01893505799737
35	566	159	-0.030781014295072
35	567	160	0.025099722573331
35	568	161	-0.025967251240418
35	569	162	0.0024342898089647
35	570	163	-0.022795992237078
35	571	164	0.026832854568972
35	572	165	-0.0025710937370289
35	573	166	-0.02189362689004
35	574	167	0.013005801501092
35	575	168	0.013898850820974
35	576	169	-0.050774487262431
35	577	170	0.021163053205162
35	578	171	0.03185649161575
35	579	172	-0.022157610352904
35	580	173	0.00083374651870072
35	581	174	0.0020131223306525
35	583	175	-0.03380723715248
35	596	176	0.047373000410892
35	597	177	0.00043621407111294
35	598	178	-0.01769595877763
35	599	179	0.030750991925207
35	600	180	-0.056944222747494
35	601	181	0.01605626214388
35	602	182	0.031732470731646
35	603	183	0.0072334709324431
35	604	184	-0.023852951341714
35	605	185	-0.031914360099085
35	606	186	0.050722434279784
35	607	187	-0.015372065545691
35	608	188	-0.039166241501998
35	609	189	0.038231025397749
35	610	190	0.018313842950253
35	611	191	-0.055794971530863
35	612	192	0.011186303646519
35	613	193	-0.0036300524517956
35	614	194	0.0054087040714259
35	615	195	0.021635876790429
35	616	196	0.024263670642412
35	617	197	-0.075756173613789
35	618	198	0.042780942982911
35	619	199	0.02740939674383
35	620	200	0.016225353883046
35	621	201	-0.062875106973731
35	622	202	-0.19220338913164
35	623	203	-0.2685028881403
35	624	204	-0.26129462943536
35	625	205	-0.1698069751707
35	626	206	-0.43214353273872
35	627	207	-0.00251673528151
35	628	208	0
35	629	209	0
35	630	210	0
35	631	211	0
35	632	212	0
35	633	213	0
35	634	214	0
35	636	215	0
35	651	216	0
35	652	217	0
35	653	218	0
35	654	219	0
35	655	220	0
35	656	221	0
35	657	222	0
35	658	223	0
35	659	224	0
35	660	225	0
35	661	226	0
35	662	227	0
35	663	228	0
35	665	229	0
35	666	230	0
35	707	231	0
36	525	131	1.6242745787351
36	526	132	1.5286904005944
36	527	133	1.5855913175729
36	528	134	1.9560146554564
36	530	135	1.3719577445351
36	543	136	1.9085821095558
36	544	137	1.4493924107649
36	545	138	1.6542445310652
36	546	139	1.7983538346501
36	547	140	1.5706901775169
36	548	141	1.6934446623987
36	549	142	1.8036429784683
36	550	143	0.973
36	551	144	0.973
36	552	145	0.973
36	553	146	0.973
36	554	147	0.973
36	555	148	0.973
36	556	149	1.1295266564901
36	557	150	1.1663754195653
36	558	151	1.2302703755763
36	559	152	1.1570082220389
36	560	153	1.2736540286426
36	561	154	1.1935151442614
36	562	155	1.1688485351733
36	563	156	1.1888056310883
36	564	157	1.1812159476295
36	565	158	1.183821874539
36	566	159	1.1658549673855
36	567	160	1.1855804329764
36	568	161	1.1673988061038
36	569	162	1.176839251902
36	570	163	1.1675588039615
36	571	164	1.1850832028929
36	572	165	1.1752642909624
36	573	166	1.1679534252882
36	574	167	1.179929522232
36	575	168	1.1809457135674
36	576	169	1.1577299097519
36	577	170	1.1817505885574
36	578	171	1.1870040203652
36	579	172	1.1681714184408
36	580	173	1.1756961817248
36	581	174	1.1761794295321
36	583	175	1.163122755251
36	596	176	1.1917919666755
36	597	177	1.1763491558641
36	598	178	1.1695860578885
36	599	179	1.1870734203466
36	600	180	1.155901235825
36	601	181	1.1800325943767
36	602	182	1.1868834946952
36	603	183	1.1791516242604
36	604	184	1.167797102415
36	605	185	1.1638550598437
36	606	186	1.1932933793227
36	607	187	1.170720944468
36	608	188	1.1613931440556
36	609	189	1.1882128907387
36	610	190	1.1826715608379
36	611	191	1.156133395388
36	612	192	1.1780137911667
36	613	193	1.1730873986397
36	614	194	1.1762494921144
36	615	195	1.182629030321
36	616	196	1.1848117024561
36	617	197	1.1492696978855
36	618	198	1.1890166379665
36	619	199	1.18554872819
36	620	200	1.182702424924
36	621	201	1.1541045904435
36	622	202	0.973
36	623	203	0.973
36	624	204	0.973
36	625	205	0.973
36	626	206	0.973
36	627	207	0.973
36	628	208	0.973
36	629	209	0.973
36	630	210	0.973
36	631	211	0.973
36	632	212	0.973
36	633	213	0.973
36	634	214	0.973
36	636	215	0.973
36	651	216	0.973
36	652	217	0.973
36	653	218	0.973
36	654	219	0.973
36	655	220	0.973
36	656	221	0.973
36	657	222	0.973
36	658	223	0.973
36	659	224	0.973
36	660	225	0.973
36	661	226	0.973
36	662	227	0.973
36	663	228	0.973
36	665	229	0.973
36	666	230	0.973
36	707	231	0.973
37	526	132	26.952428196908
37	527	133	23.712206522407
37	528	134	20.204602484787
37	530	135	16.781680724714
37	543	136	13.576090881469
37	544	137	10.660959396283
37	545	138	7.9546330496201
37	546	139	5.7582625910536
37	547	140	3.9828541716173
37	548	141	2.7910505146658
37	549	142	2.102981086231
37	550	143	1.7294405923883
37	551	144	1.5379356333885
37	552	145	1.3980992096283
37	553	146	1.3664044728778
37	554	147	1.3838003173364
37	555	148	1.3656795514825
37	556	149	1.3793806174982
37	557	150	1.3638715696972
37	558	151	1.3471975500143
37	559	152	1.3401730594563
37	560	153	1.3471930884644
37	561	154	1.3368909891168
37	562	155	1.3478926510766
37	563	156	1.3342971706064
37	564	157	1.3075525889986
37	565	158	1.3721244287714
37	566	159	1.3399327839431
37	567	160	1.3324493830357
37	568	161	1.3829795720667
37	569	162	1.3360315803659
37	570	163	1.3275026918398
37	571	164	1.3230892142471
37	572	165	1.3265530487685
37	573	166	1.3457950900871
37	574	167	1.3520694363794
37	575	168	1.3742754187647
37	576	169	1.3478082278104
37	577	170	1.3785329851652
37	578	171	1.3502872793966
37	579	172	1.3712226164847
37	580	173	1.3618185696422
37	581	174	1.3878416073241
37	583	175	1.3764379393545
37	596	176	1.3878287492538
37	597	177	1.3475016134448
37	598	178	1.376227319201
37	599	179	1.3702059282753
37	600	180	1.3385207421056
37	601	181	1.3666767586128
37	602	182	1.3490741044404
37	603	183	1.3253957017764
37	604	184	1.3825296524593
37	605	185	1.3495091763724
37	606	186	1.3569630757566
37	607	187	1.3178680515397
37	608	188	1.3817774215099
37	609	189	1.3783199251332
37	610	190	1.3146068957001
37	611	191	1.333926597761
37	612	192	1.3401096671361
37	613	193	1.3734315720858
37	614	194	1.3305082033782
37	615	195	1.3434256816612
37	616	196	1.3370393756193
37	617	197	1.3649838190415
37	618	198	1.3760361578868
37	619	199	1.3581902999564
37	620	200	1.3622481683859
37	621	201	1.3941395076776
37	622	202	1.3668698651834
37	623	203	1.339524925161
37	624	204	1.3852213322843
37	625	205	1.356237076494
37	626	206	1.3232959939791
37	627	207	1.3278000111544
37	628	208	1.18610517442
37	629	209	0.82804902104675
37	630	210	0.47793411324036
37	631	211	0.44416663307464
37	632	212	0
37	633	213	0
37	634	214	0
37	636	215	0
37	651	216	0
37	652	217	0
37	653	218	0
37	654	219	0
37	655	220	0
37	656	221	0
37	657	222	0
37	658	223	0
37	659	224	0
37	660	225	0
37	661	226	0
37	662	227	0
37	663	228	0
37	665	229	0
37	666	230	0
37	707	231	0
38	527	133	-3.2402216745004
38	528	134	-3.507604037621
38	530	135	-3.4229217600728
38	543	136	-3.2055898432447
38	544	137	-2.9151314851862
38	545	138	-2.7063263466627
38	546	139	-2.1963704585665
38	547	140	-1.7754084194362
38	548	141	-1.1918036569515
38	549	142	-0.68806942843479
38	550	143	-0.37354049384273
38	551	144	-0.19150495899976
38	552	145	-0.13983642376018
38	553	146	-0.031694736750558
38	554	147	0.01739584445866
38	555	148	-0.018120765853957
38	556	149	0.013701066015708
38	557	150	-0.015509047800981
38	558	151	-0.016674019682941
38	559	152	-0.0070244905580052
38	560	153	0.007020029008096
38	561	154	-0.010302099347598
38	562	155	0.011001661959794
38	563	156	-0.013595480470187
38	564	157	-0.026744581607751
38	565	158	0.064571839772759
38	566	159	-0.032191644828281
38	567	160	-0.0074834009073934
38	568	161	0.05053018903104
38	569	162	-0.046947991700843
38	570	163	-0.0085288885261319
38	571	164	-0.0044134775927003
38	572	165	0.0034638345214599
38	573	166	0.01924204131856
38	574	167	0.0062743462923087
38	575	168	0.022205982385269
38	576	169	-0.026467190954286
38	577	170	0.030724757354814
38	578	171	-0.028245705768616
38	579	172	0.020935337088112
38	580	173	-0.0094040468424565
38	581	174	0.026023037681866
38	583	175	-0.011403667969597
38	596	176	0.011390809899299
38	597	177	-0.040327135808975
38	598	178	0.028725705756175
38	599	179	-0.0060213909256557
38	600	180	-0.031685186169708
38	601	181	0.02815601650717
38	602	182	-0.017602654172388
38	603	183	-0.023678402663983
38	604	184	0.057133950682867
38	605	185	-0.033020476086911
38	606	186	0.0074538993841999
38	607	187	-0.039095024216848
38	608	188	0.063909369970111
38	609	189	-0.0034574963766094
38	610	190	-0.06371302943312
38	611	191	0.019319702060867
38	612	192	0.0061830693750735
38	613	193	0.033321904949721
38	614	194	-0.042923368707608
38	615	195	0.012917478283057
38	616	196	-0.006386306041954
38	617	197	0.027944443422206
38	618	198	0.011052338845266
38	619	199	-0.017845857930376
38	620	200	0.004057868429505
38	621	201	0.031891339291666
38	622	202	-0.027269642494185
38	623	203	-0.027344940022318
38	624	204	0.045696407123299
38	625	205	-0.028984255790323
38	626	206	-0.032941082514909
38	627	207	0.0045040171752488
38	628	208	-0.14169483673432
38	629	209	-0.3580561533733
38	630	210	-0.35011490780639
38	631	211	-0.033767480165718
38	632	212	-0.44416663307464
38	633	213	0
38	634	214	0
38	636	215	0
38	651	216	0
38	652	217	0
38	653	218	0
38	654	219	0
38	655	220	0
38	656	221	0
38	657	222	0
38	658	223	0
38	659	224	0
38	660	225	0
38	661	226	0
38	662	227	0
38	663	228	0
38	665	229	0
38	666	230	0
38	707	231	0
39	527	133	0.973
39	528	134	0.973
39	530	135	0.973
39	543	136	0.973
39	544	137	0.973
39	545	138	0.973
39	546	139	0.973
39	547	140	0.973
39	548	141	0.973
39	549	142	0.973
39	550	143	0.973
39	551	144	0.973
39	552	145	0.973
39	553	146	1.1657138380995
39	554	147	1.1828007593073
39	555	148	1.1701516146271
39	556	149	1.1813384279468
39	557	150	1.1709298135225
39	558	151	1.1698010531399
39	559	152	1.1726035257574
39	560	153	1.17749368413
39	561	154	1.1713931100755
39	562	155	1.178822368745
39	563	156	1.1702141038029
39	564	157	1.1648550940124
39	565	158	1.1977826722086
39	566	159	1.1644651489371
39	567	160	1.172092823221
39	568	161	1.1938009036856
39	569	162	1.1595539837903
39	570	163	1.1715262103579
39	571	164	1.172632486057
39	572	165	1.1753159530498
39	573	166	1.1813872231985
39	574	167	1.1774966509321
39	575	168	1.1838894454648
39	576	169	1.1666473302149
39	577	170	1.1869500131609
39	578	171	1.1661735942309
39	579	172	1.1833043431061
39	580	173	1.1728410442843
39	581	174	1.1859003406036
39	583	175	1.1728574270708
39	596	176	1.1810056394686
39	597	177	1.1621333527475
39	598	178	1.1861574758699
39	599	179	1.1743479983457
39	600	180	1.1645706602699
39	601	181	1.1854380229091
39	602	182	1.1695830584889
39	603	183	1.1665888092775
39	604	184	1.1959737871454
39	605	185	1.1645880555868
39	606	186	1.1781283551158
39	607	187	1.1613685733577
39	608	188	1.198183014848
39	609	189	1.1755835516957
39	610	190	1.1534409328352
39	611	191	1.1807787101899
39	612	192	1.1768661419542
39	613	193	1.1875231180495
39	614	194	1.1606378144344
39	615	195	1.1792130721163
39	616	196	1.172661745663
39	617	197	1.1852743933351
39	618	198	1.1802859052841
39	619	199	1.1699091735304
39	620	200	1.1772805864943
39	621	201	1.1882187026865
39	622	202	1.167190669893
39	623	203	1.1660130751308
39	624	204	1.1923238343139
39	625	205	1.1661817331824
39	626	206	1.1635444793644
39	627	207	1.1757106144056
39	628	208	0.973
39	629	209	0.973
39	630	210	0.973
39	631	211	1.1278200817594
39	632	212	0.973
39	633	213	0.973
39	634	214	0.973
39	636	215	0.973
39	651	216	0.973
39	652	217	0.973
39	653	218	0.973
39	654	219	0.973
39	655	220	0.973
39	656	221	0.973
39	657	222	0.973
39	658	223	0.973
39	659	224	0.973
39	660	225	0.973
39	661	226	0.973
39	662	227	0.973
39	663	228	0.973
39	665	229	0.973
39	666	230	0.973
39	707	231	0.973
40	599	179	2282.9590181818
40	600	180	2282.9590181818
40	601	181	2284.1696302521
40	602	182	2287.4366289018
40	603	183	2292.6231841759
40	604	184	2299.6766257171
40	605	185	2307.6241532926
40	606	186	2313.2019609443
40	607	187	2316.9679001968
40	608	188	2317.5740187793
40	609	189	2313.6827644826
40	610	190	2308.1657556817
40	611	191	2300.7959926078
40	612	192	2292.1242970178
40	613	193	2285.7606267454
40	614	194	2281.8151997344
40	615	195	2277.7319809213
40	616	196	2271.9543612745
40	617	197	2265.3636202107
40	618	198	2261.1366565613
40	619	199	2257.4733582313
40	620	200	2252.8175627366
40	621	201	2250.191432803
40	622	202	2252.4570495999
40	623	203	2255.5896311843
40	624	204	2257.9199567814
40	625	205	2259.5933976019
40	626	206	2260.762830346
40	627	207	2261.5873434851
40	628	208	2262.2090379648
40	629	209	2262.7239652612
40	630	210	2263.1475164578
40	631	211	2263.4643310592
40	632	212	2263.6811979836
40	633	213	2263.8389457483
40	634	214	2263.9270162074
40	636	215	2263.9270162074
40	651	216	2263.9270162074
40	652	217	2263.9270162074
40	653	218	2263.9270162074
40	654	219	2263.9270162074
40	655	220	2263.9270162074
40	656	221	2263.9270162074
40	657	222	2263.9270162074
40	658	223	2263.9270162074
40	659	224	2263.9270162074
40	660	225	2263.9270162074
40	661	226	2263.9270162074
40	662	227	2263.9270162074
40	663	228	2263.9270162074
40	665	229	2263.9270162074
40	666	230	2263.9270162074
40	707	231	2263.9270162074
41	599	179	2255.8873454545
41	600	180	2255.8873454545
41	601	181	2255.4947145128
41	602	182	2254.4351473832
41	603	183	2252.7530213483
41	604	184	2250.4654186863
41	605	185	2247.8878421754
41	606	186	2246.0788234775
41	607	187	2244.857437774
41	608	188	2242.0455590907
41	609	189	2242.5527286497
41	610	190	2244.3433985131
41	611	191	2246.7354216389
41	612	192	2249.55001638
41	613	193	2251.6154893544
41	614	194	2252.8960668379
41	615	195	2254.2213677642
41	616	196	2256.4663286939
41	617	197	2259.0772008957
41	618	198	2261.375659341
41	619	199	2263.7399542573
41	620	200	2268.134477069
41	621	201	2275.6671382214
41	622	202	2285.460165219
41	623	203	2295.050852243
41	624	204	2302.1853586759
41	625	205	2307.3087518678
41	626	206	2310.8890779158
41	627	207	2313.4134008269
41	628	208	2315.3167757331
41	629	209	2316.8932730747
41	630	210	2318.190014071
41	631	211	2319.1599711512
41	632	212	2319.8239292129
41	633	213	2320.3068885229
41	634	214	2320.5765243445
41	636	215	2320.5765243445
41	651	216	2320.5765243445
41	652	217	2320.5765243445
41	653	218	2320.5765243445
41	654	219	2320.5765243445
41	655	220	2320.5765243445
41	656	221	2320.5765243445
41	657	222	2320.5765243445
41	658	223	2320.5765243445
41	659	224	2320.5765243445
41	660	225	2320.5765243445
41	661	226	2320.5765243445
41	662	227	2320.5765243445
41	663	228	2320.5765243445
41	665	229	2320.5765243445
41	666	230	2320.5765243445
41	707	231	2320.5765243445
42	600	180	2.2284625874934
42	601	181	4.3585830724449
42	602	182	6.3342973044445
42	603	183	8.2387871524901
42	604	184	7.3382362625773
42	605	185	4.6752384215269
42	606	186	4.2584183792772
42	607	187	3.7178039492258
42	608	188	4.6955639476666
42	609	189	6.718632634537
42	610	190	8.7013212053768
42	611	191	8.2813179393661
42	612	192	5.4866546028151
42	613	193	3.1782324886054
42	614	194	5.1631341678149
42	615	195	6.9566787671193
42	616	196	6.1738501036854
42	617	197	3.733003934323
42	618	198	5.4884691478449
42	619	199	7.3177477298348
42	620	200	9.155326452397
42	621	201	10.942403491649
42	622	202	8.8524999386628
42	623	203	6.501324393733
42	624	204	4.5217692598537
42	625	205	3.2445733523422
42	626	206	2.2726806458347
42	627	207	1.8390003188933
42	628	208	1.5577398095634
42	629	209	1.2442386670528
42	630	210	0.85048012795554
42	631	211	0.60149956960802
42	632	212	0.42941945246828
42	633	213	0
42	634	214	0
42	636	215	0
42	651	216	0
42	652	217	0
42	653	218	0
42	654	219	0
42	655	220	0
42	656	221	0
42	657	222	0
42	658	223	0
42	659	224	0
42	660	225	0
42	661	226	0
42	662	227	0
42	663	228	0
42	665	229	0
42	666	230	0
42	707	231	0
43	601	181	2.1301204849515
43	602	182	1.9757142319996
43	603	183	1.9044898480456
43	604	184	-0.90055088991282
43	605	185	-2.6629978410504
43	606	186	-0.41682004224973
43	607	187	-0.54061443005133
43	608	188	0.97775999844074
43	609	189	2.0230686868704
43	610	190	1.9826885708398
43	611	191	-0.42000326601064
43	612	192	-2.794663336551
43	613	193	-2.3084221142097
43	614	194	1.9849016792094
43	615	195	1.7935445993044
43	616	196	-0.78282866343393
43	617	197	-2.4408461693624
43	618	198	1.7554652135219
43	619	199	1.8292785819899
43	620	200	1.8375787225622
43	621	201	1.787077039252
43	622	202	-2.0899035529863
43	623	203	-2.3511755449298
43	624	204	-1.9795551338793
43	625	205	-1.2771959075115
43	626	206	-0.97189270650746
43	627	207	-0.43368032694144
43	628	208	-0.28126050932984
43	629	209	-0.31350114251066
43	630	210	-0.39375853909723
43	631	211	-0.24898055834752
43	632	212	-0.17208011713974
43	633	213	-0.42941945246828
43	634	214	0
43	636	215	0
43	651	216	0
43	652	217	0
43	653	218	0
43	654	219	0
43	655	220	0
43	656	221	0
43	657	222	0
43	658	223	0
43	659	224	0
43	660	225	0
43	661	226	0
43	662	227	0
43	663	228	0
43	665	229	0
43	666	230	0
43	707	231	0
44	601	181	3.5654251263345
44	602	182	4.4551023578295
44	603	183	5.3405555051116
44	604	184	0.973
44	605	185	0.973
44	606	186	0.973
44	607	187	0.973
44	608	188	2.4525413637883
44	609	189	4.7378569626202
44	610	190	5.7483456583317
44	611	191	0.973
44	612	192	0.973
44	613	193	0.973
44	614	194	3.8416280883447
44	615	195	4.483675868962
44	616	196	0.973
44	617	197	0.973
44	618	198	3.7120276389734
44	619	199	4.7252818572642
44	620	200	5.6770400270379
44	621	201	6.4716317608348
44	622	202	0.973
44	623	203	0.973
44	624	204	0.973
44	625	205	0.973
44	626	206	0.973
44	627	207	0.973
44	628	208	0.973
44	629	209	0.973
44	630	210	0.973
44	631	211	0.973
44	632	212	0.973
44	633	213	0.973
44	634	214	0.973
44	636	215	0.973
44	651	216	0.973
44	652	217	0.973
44	653	218	0.973
44	654	219	0.973
44	655	220	0.973
44	656	221	0.973
44	657	222	0.973
44	658	223	0.973
44	659	224	0.973
44	660	225	0.973
44	661	226	0.973
44	662	227	0.973
44	663	228	0.973
44	665	229	0.973
44	666	230	0.973
44	707	231	0.973

