version 2
run General-0-20200114-22:43:38-24421
attr configname General
attr datetime 20200114-22:43:38
attr experiment General
attr inifile omnetpp.ini
attr iterationvars ""
attr iterationvarsf ""
attr measurement ""
attr network globcomm.simulation.Thesis
attr processid 24421
attr repetition 0
attr replication #0
attr resultdir results
attr runnumber 0
attr seedset 0
param *.playgroundSizeX 3000m
param *.playgroundSizeY 3000m
param *.playgroundSizeZ 500m
param *.annotations.draw true
param *.manager.updateInterval 1s
param *.manager.host "\"localhost\""
param *.manager.port 9999
param *.manager.autoShutdown true
param *.manager.launchConfig "xmldoc(\"erlangen.launchd.xml\")"
param Thesis.rsu[0].mobility.x 2000
param Thesis.rsu[0].mobility.y 2000
param Thesis.rsu[0].mobility.z 3
param *.rsu[*].applType "\"globcomm.src.RSU11p\""
param *.rsu[*].appl.headerLength "80 bit"
param *.rsu[*].appl.sendBeacons false
param *.rsu[*].appl.dataOnSch false
param *.rsu[*].appl.beaconInterval 1s
param *.rsu[*].appl.beaconUserPriority 7
param *.rsu[*].appl.dataUserPriority 5
param *.connectionManager.sendDirect true
param *.connectionManager.maxInterfDist 400m
param *.connectionManager.drawMaxIntfDist true
param *.**.nic.mac1609_4.useServiceChannel false
param *.**.nic.mac1609_4.txPower 20mW
param *.**.nic.mac1609_4.bitrate 6Mbps
param *.**.nic.phy80211p.minPowerLevel -110dBm
param *.**.nic.phy80211p.useNoiseFloor true
param *.**.nic.phy80211p.noiseFloor -98dBm
param *.**.nic.phy80211p.decider "xmldoc(\"config.xml\")"
param *.**.nic.phy80211p.analogueModels "xmldoc(\"config.xml\")"
param *.**.nic.phy80211p.usePropagationDelay true
param *.**.nic.phy80211p.antenna "xmldoc(\"antenna.xml\", \"/root/Antenna[@id='monopole']\")"
param *.node[*].applType "\"globcomm.src.MyThesisApp\""
param *.node[*].appl.headerLength "80 bit"
param *.node[*].appl.sendBeacons false
param *.node[*].appl.dataOnSch false
param *.node[*].appl.beaconInterval 1s
param *.node[*].veinsmobility.x 0
param *.node[*].veinsmobility.y 0
param *.node[*].veinsmobility.z 0
param *.node[*].veinsmobility.accidentCount 0
param *.node[*].veinsmobility.accidentStart 75s
param *.node[*].veinsmobility.accidentDuration 50s
param Thesis.numVehicles 10

vector 0 Thesis.node[0].veinsmobility posx ETV
vector 1 Thesis.node[0].veinsmobility posy ETV
vector 2 Thesis.node[0].veinsmobility speed ETV
vector 3 Thesis.node[0].veinsmobility acceleration ETV
vector 4 Thesis.node[0].veinsmobility co2emission ETV
vector 5 Thesis.node[1].veinsmobility posx ETV
vector 6 Thesis.node[1].veinsmobility posy ETV
vector 7 Thesis.node[1].veinsmobility speed ETV
vector 8 Thesis.node[1].veinsmobility acceleration ETV
vector 9 Thesis.node[1].veinsmobility co2emission ETV
9	78	62	3.7426621011442
9	79	63	4.6663801920319
9	80	64	5.6364501633373
9	81	65	7.1850266059123
9	82	66	3.7998186070848
9	83	67	1.8214352219423
9	84	68	1.7376849059008
9	85	69	1.8649072887143
9	86	70	1.8504960283181
9	87	71	1.9571342257141
9	88	72	1.8584383328387
9	89	73	1.6616697420129
9	90	74	1.6491656058611
9	91	75	1.8483198983027
9	92	76	1.9072950098822
9	93	77	0.973
9	94	78	0.973
9	95	79	5.5506125481548
9	96	80	1.5669962317922
9	97	81	5.8819753711475
9	98	82	7.4041417084668
9	99	83	9.2790016613748
9	100	84	0.973
9	101	85	0.973
9	102	86	6.3711600167277
9	103	87	5.9993730781211
9	104	88	7.2410274553297
9	105	89	8.6670068369692
9	106	90	10.237278161697
9	107	91	11.214667841462
9	108	92	11.837626187118
9	109	93	12.760922534968
9	110	94	14.162647817004
9	111	95	17.03354976246
9	112	96	17.192600992472
9	113	97	14.730032863352
9	114	98	4.6724281579634
9	115	99	4.5499709937328
9	116	100	4.5112180805338
8	78	62	2.0164365602448
8	79	63	1.9375987203489
8	80	64	1.9145065570413
8	81	65	2.0801966016623
8	82	66	0.71459316410673
8	83	67	0.0040153020131406
8	84	68	-0.02533056865912
8	85	69	0.019799783027265
8	86	70	0.014172451971099
8	87	71	0.05065024229698
8	88	72	0.014924906902015
8	89	73	-0.053866397291422
8	90	74	-0.056889563198203
8	91	75	0.014371971224902
8	92	76	0.034425633714999
8	93	77	-3.2986537451219
8	94	78	-0.24
8	95	79	1.6640715299946
8	96	80	-0.039547841793393
8	97	81	1.5230322453566
8	98	82	1.7548306116159
8	99	83	1.9862253584294
8	100	84	-4.3290819311067
8	101	85	-4.5
8	102	86	2.3564872498088
8	103	87	1.7494195042294
8	104	88	1.8548910969473
8	105	89	1.9619889697223
8	106	90	2.0572681532172
8	107	91	1.9953769342043
8	108	92	1.878979033907
8	109	93	1.837243519323
8	110	94	1.8745889189723
8	111	95	2.1095095746382
8	112	96	1.9165629320406
8	113	97	1.4172039370206
8	114	98	-0.016202288849744
8	115	99	-0.032402959361207
8	116	100	-0.036513702925294
7	77	61	2.8913433438414
7	78	62	4.9077799040861
7	79	63	6.845378624435
7	80	64	8.7598851814763
7	81	65	10.840081783139
7	82	66	11.554674947245
7	83	67	11.558690249259
7	84	68	11.533359680599
7	85	69	11.553159463627
7	86	70	11.567331915598
7	87	71	11.617982157895
7	88	72	11.632907064797
7	89	73	11.579040667505
7	90	74	11.522151104307
7	91	75	11.536523075532
7	92	76	11.570948709247
7	93	77	8.2722949641252
7	94	78	8.0322949641252
7	95	79	9.6963664941197
7	96	80	9.6568186523263
7	97	81	11.179850897683
7	98	82	12.934681509299
7	99	83	14.920906867728
7	100	84	10.591824936622
7	101	85	6.0918249366215
7	102	86	8.4483121864304
7	103	87	10.19773169066
7	104	88	12.052622787607
7	105	89	14.014611757329
7	106	90	16.071879910547
7	107	91	18.067256844751
7	108	92	19.946235878658
7	109	93	21.783479397981
7	110	94	23.658068316953
7	111	95	25.767577891591
7	112	96	27.684140823632
7	113	97	29.101344760652
7	114	98	29.085142471803
7	115	99	29.052739512441
7	116	100	29.016225809516
6	76	60	2284.2902468088
6	77	61	2284.2902468088
6	78	62	2284.9064983211
6	79	63	2286.1058589224
6	80	64	2287.8967140468
6	81	65	2290.2816088928
6	82	66	2293.2622438355
6	83	67	2296.7250981584
6	84	68	2300.2164663539
6	85	69	2303.7044743195
6	86	70	2307.1940633144
6	87	71	2310.7008266001
6	88	72	2314.2324846643
6	89	73	2317.7772838471
6	90	74	2321.2696639438
6	91	75	2324.7595578431
6	92	76	2328.2468529234
6	93	77	2331.744003882
6	94	78	2334.8151396162
6	95	79	2337.0446465951
6	96	80	2337.5247318485
6	97	81	2330.9238911485
6	98	82	2321.0511048999
6	99	83	2309.5076021175
6	100	84	2296.1415276351
6	101	85	2284.180046955
6	102	86	2277.6129907574
6	103	87	2274.4525066265
6	104	88	2272.394679278
6	105	89	2271.9546333962
6	106	90	2274.863848573
6	107	91	2279.207503231
6	108	92	2284.1124477149
6	109	93	2289.6200554536
6	110	94	2295.8355390924
6	111	95	2302.8349986076
6	112	96	2310.5032147718
6	113	97	2318.8336472673
6	114	98	2327.706334828
6	115	99	2336.600338291
6	116	100	2345.3884989731
5	76	60	2452.4369058435
5	77	61	2452.4369058435
5	78	62	2450.5202378748
5	79	63	2446.7650668562
5	80	64	2441.1013772509
5	81	65	2433.5590004474
5	82	66	2424.1325589044
5	83	67	2413.1810688785
5	84	68	2402.1394019745
5	85	69	2391.1083620044
5	86	70	2380.0883161048
5	87	71	2369.0423322998
5	88	72	2358.0189601223
5	89	73	2346.9796011647
5	90	74	2335.9371646062
5	91	75	2324.9019816871
5	92	76	2313.8750163369
5	93	77	2302.8168863086
5	94	78	2293.1058333155
5	95	79	2286.1665589791
5	96	80	2277.2534667236
5	97	81	2270.7975223412
5	98	82	2267.4465781477
5	99	83	2263.6776463215
5	100	84	2259.3136482822
5	101	85	2255.4082474629
5	102	86	2251.182319132
5	103	87	2244.5751652335
5	104	88	2235.4169050621
5	105	89	2224.2609645817
5	106	90	2211.4998599049
5	107	91	2196.9857596906
5	108	92	2180.5961381879
5	109	93	2162.2501929159
5	110	94	2142.2575667064
5	111	95	2120.4960557456
5	112	96	2096.8623962326
5	113	97	2071.3237665845
5	114	98	2044.1417382361
5	115	99	2016.3232763302
5	116	100	1988.6586020447
4	4	3	4.3435979938817
4	5	4	5.3840325964301
4	6	5	6.026505957347
4	7	6	7.095713122165
4	8	7	8.424893088986
4	9	8	9.3551143800259
4	10	9	11.362311695995
4	11	10	11.086234715347
4	12	11	12.674159453572
4	13	12	0.973
4	14	13	0.973
4	15	14	0.973
4	17	15	0.973
4	32	16	0.973
4	33	17	0.973
4	34	18	0.973
4	35	19	0.973
4	36	20	0.973
4	37	21	0.973
4	38	22	0.973
4	39	23	0.973
4	40	24	0.973
4	41	25	0.973
4	42	26	0.973
4	43	27	0.973
4	44	28	0.973
4	45	29	0.973
4	46	30	0.973
4	47	31	0.973
4	48	32	0.973
4	49	33	0.973
4	50	34	0.973
4	51	35	0.973
4	52	36	0.973
4	53	37	0.973
4	54	38	0.973
4	55	39	0.973
4	56	40	0.973
4	57	41	0.973
4	58	42	0.973
4	59	43	0.973
4	60	44	0.973
4	61	45	0.973
4	62	46	0.973
4	63	47	0.973
4	64	48	0.973
4	65	49	0.973
4	66	50	0.973
4	67	51	0.973
4	68	52	0.973
4	69	53	0.973
4	70	54	0.973
4	71	55	0.973
4	72	56	0.973
4	73	57	0.973
4	74	58	0.973
4	75	59	0.973
4	76	60	0.973
4	77	61	0.973
4	78	62	2.4090911957346
4	79	63	3.5347528835682
4	80	64	4.3857452294568
4	81	65	5.0644210822869
4	82	66	6.1386877245653
4	83	67	6.9223727227021
4	84	68	7.8649737061096
4	85	69	3.3967618821937
4	86	70	0.973
4	87	71	0.973
4	88	72	0.973
4	89	73	0.973
4	90	74	0.973
4	91	75	0.973
4	92	76	0.973
4	93	77	0.973
4	94	78	0.973
4	95	79	0.973
4	96	80	0.973
4	97	81	0.973
4	98	82	0.973
4	99	83	0.973
4	100	84	0.973
4	101	85	0.973
4	102	86	0.973
4	103	87	0.973
4	104	88	0.973
4	105	89	0.973
4	106	90	0.973
4	107	91	0.973
4	108	92	0.973
4	109	93	0.973
4	110	94	0.973
4	111	95	0.973
4	112	96	0.973
4	113	97	0.973
4	114	98	0.973
4	115	99	0.973
4	116	100	0.973
4	117	101	0.973
4	118	102	0.973
4	119	103	0.973
4	120	104	0.973
4	121	105	0.973
4	122	106	2.5069287234194
4	123	107	3.2440373072312
4	124	108	4.310524274282
4	125	109	5.4041353232868
4	126	110	6.7187565184097
4	127	111	7.3721139470703
4	128	112	0.973
4	129	113	0.973
4	130	114	6.1420406957018
4	131	115	6.6248922151462
4	132	116	8.0780165407381
4	133	117	9.75969543018
4	134	118	11.397030173505
4	135	119	0.973
4	136	120	0.973
4	137	121	6.5418564018345
3	4	3	2.0747556616366
3	5	4	2.0242198020196
3	6	5	1.856845648149
3	7	6	1.8838032585895
3	8	7	1.962268269388
3	9	8	1.9141585804406
3	10	9	2.0977291218424
3	11	10	1.7901893282379
3	12	11	1.8817599875084
3	13	12	-2.173693090615
3	14	13	-4.4754256314385
3	15	14	-4.4987465287198
3	17	15	-4.5
3	32	16	-4.4841551479012
3	33	17	-1.1429475709762
3	34	18	0
3	35	19	0
3	36	20	0
3	37	21	0
3	38	22	0
3	39	23	0
3	40	24	0
3	41	25	0
3	42	26	0
3	43	27	0
3	44	28	0
3	45	29	0
3	46	30	0
3	47	31	0
3	48	32	0
3	49	33	0
3	50	34	0
3	51	35	0
3	52	36	0
3	53	37	0
3	54	38	0
3	55	39	0
3	56	40	0
3	57	41	0
3	58	42	0
3	59	43	0
3	60	44	0
3	61	45	0
3	62	46	0
3	63	47	0
3	64	48	0
3	65	49	0
3	66	50	0
3	67	51	0
3	68	52	0
3	69	53	0
3	70	54	0
3	71	55	0
3	72	56	0
3	73	57	0
3	74	58	0
3	75	59	0
3	76	60	0
3	77	61	0
3	78	62	2.2228948878558
3	79	63	2.1130487115018
3	80	64	1.9477917105961
3	81	65	1.8036495468277
3	82	66	1.8596175350971
3	83	67	1.8000304837758
3	84	68	1.7987074017129
3	85	69	0.40536351609175
3	86	70	-4.4471930315181
3	87	71	-4.5
3	88	72	-4.4797676855878
3	89	73	-0.52414307635291
3	90	74	0
3	91	75	0
3	92	76	0
3	93	77	0
3	94	78	0
3	95	79	0
3	96	80	0
3	97	81	0
3	98	82	0
3	99	83	0
3	100	84	0
3	101	85	0
3	102	86	0
3	103	87	0
3	104	88	0
3	105	89	0
3	106	90	0
3	107	91	0
3	108	92	0
3	109	93	0
3	110	94	0
3	111	95	0
3	112	96	0
3	113	97	0
3	114	98	0
3	115	99	0
3	116	100	0
3	117	101	0
3	118	102	0
3	119	103	0
3	120	104	0
3	121	105	0
3	122	106	2.3085857594696
3	123	107	1.8980440529563
3	124	108	1.9443625161541
3	125	109	1.9689186177938
3	126	110	2.0488573409407
3	127	111	1.8974631985626
3	128	112	-3.5759507920148
3	129	113	-0.948909438325
3	130	114	1.9622528842627
3	131	115	1.7791974895354
3	132	116	1.9224849429238
3	133	117	2.0614145755605
3	134	118	2.1364414710039
3	135	119	-3.9961822857704
3	136	120	-4.4897151060219
3	137	121	1.8488921313197
2	3	2	3.7892383118386
2	4	3	5.8639939734752
2	5	4	7.8882137754948
2	6	5	9.7450594236438
2	7	6	11.628862682233
2	8	7	13.591130951621
2	9	8	15.505289532062
2	10	9	17.603018653904
2	11	10	19.393207982142
2	12	11	21.274967969651
2	13	12	19.101274879036
2	14	13	14.625849247597
2	15	14	10.127102718877
2	17	15	5.6271027188774
2	32	16	1.1429475709762
2	33	17	0
2	34	18	0
2	35	19	0
2	36	20	0
2	37	21	0
2	38	22	0
2	39	23	0
2	40	24	0
2	41	25	0
2	42	26	0
2	43	27	0
2	44	28	0
2	45	29	0
2	46	30	0
2	47	31	0
2	48	32	0
2	49	33	0
2	50	34	0
2	51	35	0
2	52	36	0
2	53	37	0
2	54	38	0
2	55	39	0
2	56	40	0
2	57	41	0
2	58	42	0
2	59	43	0
2	60	44	0
2	61	45	0
2	62	46	0
2	63	47	0
2	64	48	0
2	65	49	0
2	66	50	0
2	67	51	0
2	68	52	0
2	69	53	0
2	70	54	0
2	71	55	0
2	72	56	0
2	73	57	0
2	74	58	0
2	75	59	0
2	76	60	0
2	77	61	0
2	78	62	2.2228948878558
2	79	63	4.3359435993576
2	80	64	6.2837353099537
2	81	65	8.0873848567813
2	82	66	9.9470023918784
2	83	67	11.747032875654
2	84	68	13.545740277367
2	85	69	13.951103793459
2	86	70	9.5039107619407
2	87	71	5.0039107619407
2	88	72	0.52414307635291
2	89	73	0
2	90	74	0
2	91	75	0
2	92	76	0
2	93	77	0
2	94	78	0
2	95	79	0
2	96	80	0
2	97	81	0
2	98	82	0
2	99	83	0
2	100	84	0
2	101	85	0
2	102	86	0
2	103	87	0
2	104	88	0
2	105	89	0
2	106	90	0
2	107	91	0
2	108	92	0
2	109	93	0
2	110	94	0
2	111	95	0
2	112	96	0
2	113	97	0
2	114	98	0
2	115	99	0
2	116	100	0
2	117	101	0
2	118	102	0
2	119	103	0
2	120	104	0
2	121	105	0
2	122	106	2.3085857594696
2	123	107	4.2066298124259
2	124	108	6.15099232858
2	125	109	8.1199109463738
2	126	110	10.168768287315
2	127	111	12.066231485877
2	128	112	8.4902806938623
2	129	113	7.5413712555373
2	130	114	9.5036241398
2	131	115	11.282821629335
2	132	116	13.205306572259
2	133	117	15.26672114782
2	134	118	17.403162618824
2	135	119	13.406980333053
2	136	120	8.9172652270313
2	137	121	10.766157358351
1	2	1	2332.2430616086
1	3	2	2332.2430616086
1	4	3	2331.2981399402
1	5	4	2329.7723423231
1	6	5	2327.5863403988
1	7	6	2324.8194121722
1	8	7	2321.4896559826
1	9	8	2317.5468127736
1	10	9	2313.0167342127
1	11	10	2307.8652764837
1	12	11	2302.1583688792
1	13	12	2296.1089498037
1	14	13	2290.1198598673
1	15	14	2285.3490943177
1	17	15	2281.8655667015
1	32	16	2279.6718075972
1	33	17	2278.7647954635
1	34	18	2278.736973791
1	35	19	2278.736973791
1	36	20	2278.736973791
1	37	21	2278.736973791
1	38	22	2278.736973791
1	39	23	2278.736973791
1	40	24	2278.736973791
1	41	25	2278.736973791
1	42	26	2278.736973791
1	43	27	2278.736973791
1	44	28	2278.736973791
1	45	29	2278.736973791
1	46	30	2278.736973791
1	47	31	2278.736973791
1	48	32	2278.736973791
1	49	33	2278.736973791
1	50	34	2278.736973791
1	51	35	2278.736973791
1	52	36	2278.736973791
1	53	37	2278.736973791
1	54	38	2278.736973791
1	55	39	2278.736973791
1	56	40	2278.736973791
1	57	41	2278.736973791
1	58	42	2278.736973791
1	59	43	2278.736973791
1	60	44	2278.736973791
1	61	45	2278.736973791
1	62	46	2278.736973791
1	63	47	2278.736973791
1	64	48	2278.736973791
1	65	49	2278.736973791
1	66	50	2278.736973791
1	67	51	2278.736973791
1	68	52	2278.736973791
1	69	53	2278.736973791
1	70	54	2278.736973791
1	71	55	2278.736973791
1	72	56	2278.736973791
1	73	57	2278.736973791
1	74	58	2278.736973791
1	75	59	2278.736973791
1	76	60	2278.736973791
1	77	61	2278.736973791
1	78	62	2278.736973791
1	79	63	2278.3775638905
1	80	64	2277.5395440137
1	81	65	2276.2302490345
1	82	66	2275.0583740921
1	83	67	2275.5124516505
1	84	68	2284.5436789373
1	85	69	2296.6353202331
1	86	70	2310.2668252567
1	87	71	2321.1844197079
1	88	72	2327.8658793516
1	89	73	2330.2813210336
1	90	74	2330.2884807988
1	91	75	2330.2884807988
1	92	76	2330.2884807988
1	93	77	2330.2884807988
1	94	78	2330.2884807988
1	95	79	2330.2884807988
1	96	80	2330.2884807988
1	97	81	2330.2884807988
1	98	82	2330.2884807988
1	99	83	2330.2884807988
1	100	84	2330.2884807988
1	101	85	2330.2884807988
1	102	86	2330.2884807988
1	103	87	2330.2884807988
1	104	88	2330.2884807988
1	105	89	2330.2884807988
1	106	90	2330.2884807988
1	107	91	2330.2884807988
1	108	92	2330.2884807988
1	109	93	2330.2884807988
1	110	94	2330.2884807988
1	111	95	2330.2884807988
1	112	96	2330.2884807988
1	113	97	2330.2884807988
1	114	98	2330.2884807988
1	115	99	2330.2884807988
1	116	100	2330.2884807988
1	117	101	2330.2884807988
1	118	102	2330.2884807988
1	119	103	2330.2884807988
1	120	104	2330.2884807988
1	121	105	2330.2884807988
1	122	106	2330.2884807988
1	123	107	2331.5498465584
1	124	108	2334.7304838107
1	125	109	2339.6594917315
1	126	110	2346.5197922172
1	127	111	2355.3116689485
1	128	112	2365.9553745053
1	129	113	2375.9030835896
1	130	114	2382.6354232552
1	131	115	2390.8006682265
1	132	116	2400.753154732
1	133	117	2412.5022377295
1	134	118	2426.0951835914
1	135	119	2441.7585303981
1	136	120	2456.413932899
1	137	121	2466.8188466946
0	2	1	2050.8554437618
0	3	2	2050.8554437618
0	4	3	2053.7519644346
0	5	4	2058.4290762926
0	6	5	2065.1299489424
0	7	6	2073.6115671294
0	8	7	2083.8184530127
0	9	8	2095.9108843865
0	10	9	2109.8652106628
0	11	10	2125.7421493607
0	12	11	2143.4855408162
0	13	12	2162.9279523721
0	14	13	2182.8388293747
0	15	14	2198.7829318172
0	17	15	2210.4250300499
0	32	16	2217.7566667714
0	33	17	2220.7879401018
0	34	18	2220.8809213209
0	35	19	2220.8809213209
0	36	20	2220.8809213209
0	37	21	2220.8809213209
0	38	22	2220.8809213209
0	39	23	2220.8809213209
0	40	24	2220.8809213209
0	41	25	2220.8809213209
0	42	26	2220.8809213209
0	43	27	2220.8809213209
0	44	28	2220.8809213209
0	45	29	2220.8809213209
0	46	30	2220.8809213209
0	47	31	2220.8809213209
0	48	32	2220.8809213209
0	49	33	2220.8809213209
0	50	34	2220.8809213209
0	51	35	2220.8809213209
0	52	36	2220.8809213209
0	53	37	2220.8809213209
0	54	38	2220.8809213209
0	55	39	2220.8809213209
0	56	40	2220.8809213209
0	57	41	2220.8809213209
0	58	42	2220.8809213209
0	59	43	2220.8809213209
0	60	44	2220.8809213209
0	61	45	2220.8809213209
0	62	46	2220.8809213209
0	63	47	2220.8809213209
0	64	48	2220.8809213209
0	65	49	2220.8809213209
0	66	50	2220.8809213209
0	67	51	2220.8809213209
0	68	52	2220.8809213209
0	69	53	2220.8809213209
0	70	54	2220.8809213209
0	71	55	2220.8809213209
0	72	56	2220.8809213209
0	73	57	2220.8809213209
0	74	58	2220.8809213209
0	75	59	2220.8809213209
0	76	60	2220.8809213209
0	77	61	2220.8809213209
0	78	62	2220.8809213209
0	79	63	2222.1269873541
0	80	64	2225.4471699109
0	81	65	2230.6345150711
0	82	66	2237.8473247381
0	83	67	2246.9142700088
0	84	68	2252.1577000287
0	85	69	2256.1071619133
0	86	70	2260.5595855507
0	87	71	2264.1255715159
0	88	72	2266.3079195984
0	89	73	2267.09686914
0	90	74	2267.0992077158
0	91	75	2267.0992077158
0	92	76	2267.0992077158
0	93	77	2267.0992077158
0	94	78	2267.0992077158
0	95	79	2267.0992077158
0	96	80	2267.0992077158
0	97	81	2267.0992077158
0	98	82	2267.0992077158
0	99	83	2267.0992077158
0	100	84	2267.0992077158
0	101	85	2267.0992077158
0	102	86	2267.0992077158
0	103	87	2267.0992077158
0	104	88	2267.0992077158
0	105	89	2267.0992077158
0	106	90	2267.0992077158
0	107	91	2267.0992077158
0	108	92	2267.0992077158
0	109	93	2267.0992077158
0	110	94	2267.0992077158
0	111	95	2267.0992077158
0	112	96	2267.0992077158
0	113	97	2267.0992077158
0	114	98	2267.0992077158
0	115	99	2267.0992077158
0	116	100	2267.0992077158
0	117	101	2267.0992077158
0	118	102	2267.0992077158
0	119	103	2267.0992077158
0	120	104	2267.0992077158
0	121	105	2267.0992077158
0	122	106	2267.0992077158
0	123	107	2267.5146933534
0	124	108	2268.5893916864
0	125	109	2270.2548430333
0	126	110	2272.5728544604
0	127	111	2275.5435218197
0	128	112	2279.0427994176
0	129	113	2282.2775020906
0	130	114	2284.4666611147
0	131	115	2287.121744505
0	132	116	2290.3563926708
0	133	117	2294.1749509522
0	134	118	2298.5973323237
0	135	119	2303.6947330078
0	136	120	2308.4641133743
0	137	121	2311.8502361074

